47
CONF13
C -4.0726858925 -1.5756887780 1.0932218019
C -2.9298993461 -0.7100636126 0.6101063174
C -1.5939170493 -1.3385081256 0.3904965312
C -2.4738064077 -1.0151940693 -0.8273196939
C -2.0585313826 -0.0263585904 -1.8290390428
O -2.4367718577 -0.0074625465 -2.9829611713
O -1.1563605128 0.8793489902 -1.3421710732
C -0.5750058044 1.7809699261 -2.3086643116
C -1.5429919334 2.8278037545 -2.6482037057
N -2.3103039988 3.6507347138 -2.9057803518
C 0.7022425839 2.3217337983 -1.6983436232
C 1.5481551808 1.4028140283 -1.0772796013
C 2.7341742199 1.8318052578 -0.4965773460
C 3.0740730806 3.1836546528 -0.5858055763
C 2.2566224886 4.0974991246 -1.2193418506
C 1.0518669248 3.6664926500 -1.7711461244
F 4.2331785213 3.5940654704 -0.0305718337
O 3.6282262841 0.9964121391 0.1178311434
C 3.1463899776 -0.1153742386 0.8048995163
C 3.8680879045 -1.2945220957 0.6701127530
C 3.4729301588 -2.4148021574 1.3972958569
C 2.3665060703 -2.3544293445 2.2403968203
C 1.6573097769 -1.1609604292 2.3639129275
C 2.0447299396 -0.0296244943 1.6523531881
C -1.2993565587 -2.7482011775 0.7143386397
C -0.3198029691 -3.4273812774 0.1203277417
Cl 0.6571283902 -2.7428846376 -1.1453582758
Cl 0.0937352471 -5.0658763291 0.5365497885
C -2.9908766710 0.7140141003 1.1135935723
H -4.0348702142 -2.5834283227 0.6714093553
H -5.0287480194 -1.1227280893 0.8124627344
H -4.0421740115 -1.6562836640 2.1856283024
H -0.7427172742 -0.6664154730 0.4853095239
H -2.9845022270 -1.8540546160 -1.2884700094
H -0.3604599053 1.2216135647 -3.2293679359
H 1.2782731676 0.3541894861 -1.0226344761
H 2.5547854531 5.1393944058 -1.2594925044
H 0.3979093741 4.3874897162 -2.2490155895
H 4.7242500601 -1.3248295582 0.0045434212
H 4.0307011636 -3.3402364577 1.2944894616
H 2.0559620055 -3.2320364269 2.7974788505
H 0.7973191929 -1.1033750464 3.0240328508
H 1.5016254316 0.9041128676 1.7550991723
H -1.8708714470 -3.2564935502 1.4858332148
H -3.8877336171 1.2150317234 0.7338492088
H -2.1155455001 1.2964562098 0.8242996990
H -3.0482496908 0.7015766392 2.2073018214
