39
CONF37
C 8.4189235555 1.9996904328 -1.8208552470
C 7.9361852097 0.8513751723 -0.9368057845
C 6.5050021942 1.0537750996 -0.4398134651
C 6.0292603668 -0.0801311125 0.4689595819
C 4.5777119340 0.0654296550 0.9584938844
C 4.3106470429 -0.7493220000 2.2333576807
C 4.9154570678 -0.1282521128 3.4911629490
C 3.6411522765 -0.3601044210 -0.1579240670
O 2.2836752169 0.0404379702 0.2219103211
C 1.3192191626 -0.2494305450 -0.6468267294
O 1.4561157965 -0.8831459709 -1.6717407458
C -0.0118642308 0.2611564353 -0.1779800354
C -0.9917935441 -0.6863657299 0.0894588735
C -2.2450908880 -0.2899414801 0.5295199944
C -2.5472775261 1.0658590133 0.6929217852
C -1.5671192943 2.0275523445 0.3935945564
C -0.2995952246 1.6187974287 -0.0386700611
Br 1.0268854342 2.8904522984 -0.5251930303
Br -1.9596599425 3.8716868407 0.5723708540
Br -4.2616465433 1.5906360142 1.2961938441
Br -3.5124752899 -1.6567903465 0.8958909924
H 7.7778766972 2.1082786483 -2.7028339230
H 8.3969251044 2.9489858643 -1.2741386137
H 9.4438078830 1.8352481568 -2.1682360873
H 7.9938891982 -0.0934354808 -1.4933363217
H 8.6050126692 0.7424393711 -0.0725698681
H 6.4431128909 2.0027577567 0.1108654778
H 5.8386643518 1.1565069527 -1.3067367234
H 6.6945811995 -0.1321441442 1.3385287222
H 6.1343206913 -1.0434963855 -0.0518189078
H 4.3850777703 1.1272746787 1.1726126527
H 4.7025066140 -1.7654482391 2.0854353626
H 3.2281745109 -0.8495395860 2.3753447639
H 6.0019521405 -0.0203409250 3.4139738799
H 4.4924044928 0.8662074260 3.6710564169
H 4.7070265181 -0.7458688457 4.3701340236
H 3.6541817266 -1.4469698921 -0.2982203232
H 3.8742808429 0.1250029134 -1.1102348857
H -0.7667496576 -1.7386565446 -0.0384989976
