65
CONF72
C 4.8044478013 -4.6918244918 4.3391534333
O 5.3437458767 -3.3992201149 4.0373301332
C 4.4559091316 -2.3974869124 3.7613901366
C 3.0684450076 -2.5469392360 3.7541272750
C 2.2633725344 -1.4443754082 3.4576968603
C 2.8034780009 -0.1936282367 3.1672428460
C 4.1992962594 -0.0678151537 3.1850097816
C 5.0187705738 -1.1471504094 3.4765439953
C 1.9306625243 0.9831554866 2.8168986631
C 2.0564663838 1.4137383901 1.3488327978
N 1.7858663709 0.3438422150 0.3830897807
C 2.1146944791 0.8124921854 -0.9688376607
C 1.8993584762 -0.2851163245 -2.0081093288
C 0.4742848322 -0.8386278648 -1.9780060810
C 0.1160275498 -1.2270419055 -0.5378146249
C 0.3819756633 -0.0854459310 0.4366132408
N -0.4532751648 0.1632506018 -2.5328951513
C -1.7411111050 -0.1847410389 -2.8047069890
N -2.1927798091 -1.4201678265 -2.9698524929
C -3.5352459647 -1.2639919740 -3.2808559365
C -4.5074493282 -2.2263752907 -3.5481542815
C -5.8060692511 -1.7933587911 -3.8195457547
C -6.1349781945 -0.4317451818 -3.8255990418
C -5.1740346724 0.5483890910 -3.5628757443
C -3.8854366368 0.1079950759 -3.2975561214
N -2.7107636368 0.7843648371 -2.9996442653
C -2.5303506363 2.2182796127 -2.8261811253
C -2.2270949784 2.5961447074 -1.3905085547
C -2.9223576768 1.9993825919 -0.3355416819
C -2.6440541989 2.3409015302 0.9835351716
C -1.6593495611 3.2860277505 1.2213366795
C -0.9514147790 3.9028376998 0.2058740152
C -1.2435246126 3.5447604356 -1.1083124923
F -1.3646094034 3.6073969509 2.5080670124
H 4.2271607725 -5.0853128208 3.4939897541
H 4.1703039817 -4.6553630990 5.2330575207
H 5.6643933352 -5.3355988485 4.5264775860
H 2.6034017238 -3.4999827984 3.9754728203
H 1.1838801446 -1.5732275107 3.4569611478
H 4.6533238926 0.8962706800 2.9688839641
H 6.0991287282 -1.0401654226 3.4933851850
H 0.8885965988 0.7589831071 3.0656425740
H 2.2139294741 1.8521760788 3.4237396599
H 3.0823732179 1.7615278989 1.1732526400
H 1.3874944687 2.2818097128 1.1778890487
H 3.1660360231 1.1228360819 -0.9827906429
H 1.5212080734 1.7159874672 -1.2302872148
H 2.1381027219 0.0972584615 -3.0063293180
H 2.5841578999 -1.1133097715 -1.7939364286
H 0.4093710452 -1.7193963916 -2.6238097098
H -0.9364825047 -1.5237329014 -0.4806656105
H 0.7220316260 -2.0957427645 -0.2515302142
H -0.2970134253 0.7661370560 0.2224458244
H 0.1483814759 -0.4243414919 1.4500841750
H -0.3356613287 1.0995584776 -2.1690237614
H -4.2565629041 -3.2828623914 -3.5407123792
H -6.5788192714 -2.5267721790 -4.0286632696
H -7.1553233053 -0.1282171727 -4.0370768589
H -5.4357061334 1.6017015036 -3.5661984604
H -1.7267214407 2.5697672454 -3.4844718441
H -3.4512529146 2.7051759170 -3.1622085574
H -3.6826118198 1.2514979894 -0.5420630211
H -3.1695095067 1.8799546185 1.8128553799
H -0.1817712600 4.6305272414 0.4386118399
H -0.6887416673 4.0049501581 -1.9211833960
