71
CONF1
C 4.9139688786 -2.8117251624 -2.1084506682
O 3.5863195542 -3.1659610801 -1.7054551433
C 3.0987804644 -2.5629715829 -0.5812946098
C 1.7552394736 -2.8631453816 -0.2572637772
O 1.1196266489 -3.7199412937 -1.1059096962
C -0.2325026943 -4.0723134412 -0.7887555181
C 1.1779097002 -2.2970110867 0.8733570260
C 1.9070138900 -1.4395944141 1.7119845284
C 1.2271272419 -0.7925786258 2.8860168141
C 0.7999798081 0.6573720886 2.5356481245
N -0.2510199199 1.2529128869 3.3617012397
C 0.1542604268 1.3859062820 4.7600671115
C -1.5448455882 0.5626799343 3.2670621911
C -2.0600789320 0.4139740802 1.8366158320
C -2.1953274402 1.7562681246 1.1237512799
C -2.6189781302 1.6463507087 -0.3686939613
C -3.9457961521 1.0298824231 -0.4004969013
N -5.0121709385 0.5815380232 -0.3938084755
C -2.7382934463 3.0737679035 -1.0285262360
C -3.7053862855 4.0014040297 -0.2909507352
C -3.1202618172 2.9786376204 -2.5056340182
C -1.6212773817 0.7947306089 -1.1628467615
C -0.2755696432 1.1935615719 -1.1769219628
C 0.6650493385 0.5067550290 -1.9324275144
O 1.9880234984 0.8192491724 -1.9932614146
C 2.4462925053 1.9071189881 -1.1790572473
C 0.2659313864 -0.6005268316 -2.7193824061
O 1.2478741693 -1.1800216522 -3.4595839222
C 0.8758753093 -2.3017294866 -4.2715252635
C -1.0615468462 -1.0032611284 -2.6874248296
C -1.9972738916 -0.3107105887 -1.9102475806
C 3.2278334180 -1.1535523335 1.3839736722
C 3.8203510372 -1.7084289900 0.2443872170
H 5.0962654393 -3.3553088360 -3.0360445943
H 5.6509968365 -3.1138490672 -1.3546310691
H 4.9942780786 -1.7329837722 -2.2898805639
H -0.8792941242 -3.1869540443 -0.7790382575
H -0.5534632454 -4.7498460922 -1.5809649707
H -0.2872398615 -4.5828137822 0.1802817389
H 0.1472177762 -2.5203174549 1.1250999066
H 1.8921081925 -0.7824184118 3.7564403446
H 0.3424315193 -1.3787381036 3.1560095379
H 1.6827631142 1.3078568131 2.5917969116
H 0.4715518170 0.6741730282 1.4907041435
H 1.1117139026 1.9152469158 4.8178293343
H -0.5960803169 1.9691506819 5.3057653874
H 0.2657129449 0.4151214748 5.2774580153
H -2.2654963595 1.1548457409 3.8477696685
H -1.5157344446 -0.4383768903 3.7386797038
H -3.0406967079 -0.0749676189 1.8899730358
H -1.4129754761 -0.2605366472 1.2633590873
H -2.9274889513 2.3676243617 1.6593121432
H -1.2473563871 2.3017853577 1.1525066375
H -1.7282944299 3.4954670878 -0.9541828222
H -3.3888701079 4.2129631949 0.7326114804
H -4.7153488142 3.5759874251 -0.2625364809
H -3.7633756029 4.9555203496 -0.8233628936
H -2.4187726949 2.3568461793 -3.0678367125
H -3.1266043495 3.9781092284 -2.9502000231
H -4.1250391706 2.5549202388 -2.6221365330
H 0.0392212804 2.0551762812 -0.6021304628
H 1.9772451283 2.8503876036 -1.4831745099
H 2.2423778446 1.7149766581 -0.1190971612
H 3.5229585807 1.9623386503 -1.3421172211
H 1.7914480348 -2.6186509498 -4.7719403448
H 0.1267227433 -2.0118134446 -5.0178090665
H 0.4917376376 -3.1198821889 -3.6527007511
H -1.3894274879 -1.8574461606 -3.2673108537
H -3.0286124561 -0.6474693890 -1.9181556773
H 3.8139047085 -0.4936909756 2.0177514174
H 4.8523877458 -1.4710697428 0.0152158857
