50
CONF88
C 1.0013170406 -1.0791629671 -1.9460787435
C -0.4121633377 -0.5846717126 -2.1410347220
C -1.5661800995 -1.5554710898 -2.2750612176
C -1.4343556558 -0.6860168088 -1.0102578561
C -1.0602652583 -1.2558702741 0.2913353373
O -0.4608214100 -2.2851466120 0.5168600009
O -1.4732988349 -0.4122805712 1.2901807544
C -0.9919185350 -0.7742024634 2.6102053598
C -1.8534000735 -0.0554097688 3.5483540731
N -2.5089026562 0.5012943809 4.3186923215
C 0.4626184605 -0.3906402149 2.7893162519
C 0.8622281824 0.9028527698 2.4524791271
C 2.2041678201 1.2451905125 2.5831590244
C 3.1333100488 0.3201411814 3.0642990519
C 2.7116751976 -0.9568669080 3.4072524578
C 1.3746378171 -1.3259469105 3.2655275800
O 2.6906131185 2.4992728865 2.2991845695
C 1.9096979692 3.3620120608 1.5343534022
C 1.4855557049 4.5471083192 2.1202225486
C 0.7698103343 5.4621396734 1.3504305972
C 0.4823593899 5.1850113301 0.0164458979
C 0.9167929759 3.9889454865 -0.5540286470
C 1.6363761387 3.0680733202 0.2017839964
C -1.3528802310 -3.0022712394 -2.2309242951
C -2.0790575911 -3.9101942033 -2.8908387418
C -3.2635031154 -3.5636320474 -3.7636106523
F -2.8937456217 -2.7720857261 -4.8060623672
F -4.2009744441 -2.8685555086 -3.0681392370
F -3.8759236700 -4.6386038214 -4.2850329982
Cl -1.6823276506 -5.6117462877 -2.7993613703
C -0.5018221900 0.6736514355 -2.9751490082
H 1.4330794346 -1.3287600073 -2.9209724674
H 1.6058905667 -0.2799682125 -1.5036981335
H 1.0735736264 -1.9531803306 -1.2998486572
H -2.3691876011 -1.2059542383 -2.9140219379
H -2.1402067707 0.1347170338 -0.9471443107
H -1.1210044467 -1.8499185011 2.7744876065
H 0.1388595463 1.6241190535 2.0880499996
H 4.1727885075 0.6152968196 3.1605096422
H 3.4351199727 -1.6772554513 3.7746589943
H 1.0488460080 -2.3315338354 3.5098921218
H 1.7182493123 4.7425402744 3.1617334095
H 0.4356502066 6.3922202754 1.7991240941
H -0.0753927938 5.8996511455 -0.5797880758
H 0.7034747069 3.7752931724 -1.5965168101
H 1.9851375726 2.1350793121 -0.2304856156
H -0.5325484312 -3.3703357208 -1.6265921903
H 0.0686371335 1.4784419207 -2.4994317680
H -0.0744041466 0.4917833048 -3.9670474114
H -1.5361823070 1.0058461522 -3.0974109806
