84
CONF14
C 0.7146409436 1.2386571281 0.2386128966
C -0.7444559858 0.9976896002 -0.1563341559
C -1.4642103139 0.2420165312 0.9498296288
O -2.8289588526 -0.0551888356 0.5384941963
C -3.7691827781 0.8779529847 0.7915134270
O -3.5351647966 1.9445398550 1.3323963999
C -5.1170813358 0.4499463525 0.3404931919
C -5.3190829933 -0.7928608975 -0.2651345597
C -6.6062710408 -1.1512906407 -0.6645244131
O -6.9277675482 -2.3275037752 -1.2626131409
C -5.8639095200 -3.2655649162 -1.4794808643
C -7.6809300791 -0.2722157348 -0.4517333175
O -8.9496638299 -0.6470125011 -0.7999150134
C -9.3047372495 -0.2660720040 -2.1481897139
C -7.4583015953 0.9774904584 0.1509529203
O -8.5617673694 1.7542569511 0.2995506389
C -8.3807143699 3.0416977296 0.9069327993
C -6.1736073588 1.3380473425 0.5530900524
C -0.8119919595 -1.0985987859 1.2632580958
O -1.4252196319 -1.6948855379 2.4103454904
C -2.3266884435 -2.7624503062 2.1092633943
C 0.6621211443 -0.8841593439 1.6081037751
C 1.3422605140 -2.2150977992 1.8438882642
O 0.9833727475 -3.2845724402 1.3947458259
O 2.4597601946 -2.0533342636 2.5766533471
C 3.2520149787 -3.2488353923 2.7878558688
C 1.4404030833 -0.0821536445 0.5360347259
C 1.6709585510 -0.8656908989 -0.7588046172
C 2.4023972765 -0.0294723674 -1.8123042236
N 1.6989167087 1.2509737178 -2.0483704292
C 2.4301150322 2.0486092085 -3.0492113619
C 3.8351674791 2.5051698386 -2.5957185952
C 4.5140311798 1.3839279639 -1.8791319658
C 3.8488373092 0.2439277697 -1.5060539802
N 4.7225947625 -0.6119025366 -0.8517730543
C 5.9657522565 -0.0250656874 -0.7907271995
C 5.8692884915 1.2465946722 -1.4280021310
C 7.0147417503 2.0438196357 -1.4929892681
C 8.2100410416 1.5876977655 -0.9441129982
C 8.2727568810 0.3253474648 -0.3213940516
O 9.4150979558 -0.1894590129 0.2395250447
C 10.5984544482 0.6116660458 0.1919331279
C 7.1493668341 -0.4978523285 -0.2367376322
C 1.5038937970 2.0199890150 -0.8099921589
H 0.7191751823 1.8422165700 1.1571881606
H -1.2475269426 1.9556957479 -0.3253999875
H -0.8072054187 0.4242512982 -1.0870080194
H -1.5048836501 0.8420129994 1.8660601109
H -4.4813689369 -1.4568751589 -0.4208887437
H -5.1010536786 -2.8469944133 -2.1459576500
H -5.4046075929 -3.5629870625 -0.5295227944
H -6.3293044874 -4.1314438813 -1.9504874657
H -8.6332679985 -0.7455335357 -2.8693311648
H -9.2597168520 0.8229187330 -2.2614543385
H -10.3271403665 -0.6133385962 -2.3054945311
H -7.9970238201 2.9425244682 1.9287306129
H -9.3711467437 3.4964102604 0.9282401356
H -7.7004621860 3.6629375299 0.3131353387
H -5.9694235947 2.2895389479 1.0251343733
H -0.9061450496 -1.7679241765 0.3971235806
H -3.1923020845 -2.4111789951 1.5339522680
H -2.6707060079 -3.1586737628 3.0677395715
H -1.8152480153 -3.5583735959 1.5519569006
H 0.7074375073 -0.3119742276 2.5434087414
H 4.1109188992 -2.9259268012 3.3745779999
H 3.5732944797 -3.6613692018 1.8282682532
H 2.6697323161 -3.9943032157 3.3344642550
H 2.4213796128 0.1636099515 0.9635178424
H 2.2443935771 -1.7785757634 -0.5622678501
H 0.7207261024 -1.1933155161 -1.1920503404
H 2.3519511311 -0.5899115157 -2.7590535170
H 1.8193568003 2.9205344074 -3.3111749468
H 2.5287013306 1.4286189566 -3.9492243435
H 3.7644753260 3.3922905832 -1.9504060522
H 4.4083423162 2.8170831481 -3.4780195680
H 4.4982691626 -1.5264698578 -0.4955808446
H 6.9825685553 3.0189872589 -1.9707212613
H 9.0899647377 2.2158663020 -1.0036516672
H 10.4585641923 1.5602286286 0.7247074364
H 10.9021701753 0.8130057300 -0.8427895906
H 11.3724020007 0.0259322720 0.6897554350
H 7.2182781666 -1.4671018617 0.2466784998
H 0.9661404556 2.9397990658 -1.0730678746
H 2.4630160107 2.3190293924 -0.3503433119
