39
CONF442
C 2.3990988268 -0.0866605649 -0.1174049836
C 3.0193826476 -1.4629720953 0.0853343343
O 2.1174156303 -2.3476010413 0.7439096938
C 1.2177667048 -3.0505257388 -0.1048236172
C -0.1898756628 -2.9411180674 0.4350454843
O -0.6529236826 -1.6265268217 0.1356234705
C -1.8386899488 -1.2220117241 0.6641979921
C -2.6842225669 -2.0034403851 1.4416628021
C -3.8701774298 -1.4644681721 1.9493411364
C -4.2092231383 -0.1500887618 1.6791434595
C -3.3716618351 0.6417368242 0.8878143886
C -2.1957999952 0.1141627630 0.3707631856
O -1.3193186723 0.7790547388 -0.4304102224
C -1.4731193046 2.1874731679 -0.5697543889
C -0.3110992601 2.6725795660 -1.4016476121
O 0.8802058990 2.4434282338 -0.6747263154
C 2.0598823492 2.6783891709 -1.4320949245
C 3.2449048369 2.0945669376 -0.6849267272
O 3.3805795133 0.6890671470 -0.8130423295
H 1.4596312920 -0.1522576429 -0.6820123080
H 2.1617363802 0.3628677051 0.8579089195
H 3.3505574870 -1.8731674605 -0.8806332048
H 3.9007836210 -1.3767261601 0.7293661696
H 1.2406108741 -2.6580258069 -1.1307824629
H 1.5034903896 -4.1140203583 -0.1368575381
H -0.8403298782 -3.6917121358 -0.0409152665
H -0.1806519167 -3.1110338786 1.5207357582
H -2.4266585644 -3.0318883999 1.6637122537
H -4.5184501423 -2.0852593837 2.5582113533
H -5.1250491660 0.2745709199 2.0756697845
H -3.6483036631 1.6679569682 0.6772500654
H -1.4668909567 2.6690210820 0.4187695721
H -2.4156276681 2.4332032791 -1.0825731582
H -0.2931210316 2.1256876888 -2.3588729420
H -0.4464937012 3.7463592702 -1.6214788808
H 1.9866238035 2.2021665928 -2.4238952057
H 2.2113484304 3.7627488239 -1.5811970148
H 4.1653142519 2.5179993536 -1.1028188509
H 3.1783549401 2.3864645570 0.3764083261
