76
CONF594
C 2.9652092176 1.7603113180 -1.2893691324
C 2.9235364361 0.8193921738 -0.0823517007
C 4.1588305834 -0.1005760126 -0.0809120472
C 5.4856129462 0.6513623333 0.1404001712
C 6.6302379799 -0.2988079046 0.3046174853
O 7.0376393286 -0.9813626061 -0.7967053618
N 7.1914103080 -0.5004507830 1.4307507196
C 8.2739879364 -1.4680052646 1.5116658835
C 8.7937309374 -1.5367771782 2.9383692977
O 8.1734348407 -0.7234942412 3.8030833977
O 9.6990476863 -2.2666966111 3.2835644072
C 1.6496081892 -0.0446531342 -0.0362801428
C 1.6042436569 -0.9632027813 1.2253700762
C 0.1156034293 -1.1266461972 1.6176241000
C -0.6361444972 -0.5207041507 0.4339602016
C -2.1052645369 -0.1568123374 0.6222826744
C -2.9260080320 -1.3447297248 1.1315460821
O -2.6440456640 -2.4794196529 0.2853052978
C -4.4189949024 -1.0177153938 1.1875729798
C -4.9891270253 -0.3994847070 -0.0969993916
C -5.1505323075 -1.4432364776 -1.2175610862
C -5.7502968141 -0.8423475395 -2.4808561581
O -5.8399701266 -1.8156584779 -3.5398339971
C -4.8861859889 0.3039602721 -2.9741961026
C -4.7654671630 1.3584974338 -1.8761235808
C -4.1675043004 0.8408044274 -0.5485481836
C -4.3422624842 1.9756614671 0.4762916859
C -2.6718341359 0.4250620879 -0.6931745704
C -1.7772616871 1.5583250591 -1.2223062114
C -0.2920191828 1.1894393135 -1.3519615279
O -0.0817949932 0.2775778192 -2.4469288794
C 0.2605052111 0.6607763566 -0.0105245809
C 0.2761327873 1.8053774771 1.0160835150
H 2.8160424454 1.1980524083 -2.2186270543
H 3.9248711892 2.2809252215 -1.3591636381
H 2.1930080066 2.5292238077 -1.2312050078
H 2.9636809993 1.4215627043 0.8378524508
H 4.0661114881 -0.8439987779 0.7169259153
H 4.1876014043 -0.6533908197 -1.0304457207
H 5.4184151380 1.2595569375 1.0461026645
H 5.7055383855 1.3189252296 -0.7012513654
H 6.5363756070 -0.6962811589 -1.5745908840
H 9.1247273135 -1.2127095897 0.8638562716
H 7.9614169017 -2.4830209799 1.2274030339
H 7.4881973087 -0.2512618746 3.2685723599
H 1.6571994519 -0.6816186043 -0.9311755724
H 2.0647413821 -1.9330049938 1.0165202581
H 2.1778595901 -0.5123410020 2.0438622728
H -0.1144555620 -0.5749483180 2.5371004008
H -0.1578007616 -2.1714684804 1.7900814577
H -0.5863220165 -1.2632078443 -0.3765461077
H -2.1715087056 0.6036957029 1.4108610186
H -2.5871131839 -1.5810428702 2.1534825874
H -3.2497664559 -3.1859180393 0.5406015840
H -4.5692672962 -0.3249840540 2.0248899968
H -4.9782311448 -1.9285298652 1.4439124737
H -6.0003820391 -0.0325619825 0.1390760400
H -4.1858937019 -1.8903750448 -1.4749116270
H -5.7926992372 -2.2564814970 -0.8507026035
H -6.7589080336 -0.4524581964 -2.2583058746
H -6.3766126601 -2.5498744072 -3.2156402000
H -3.9003351719 -0.0890691419 -3.2564137696
H -5.3297961962 0.7455955217 -3.8742908014
H -5.7724674509 1.7387142796 -1.6517710437
H -4.1918045969 2.2191117976 -2.2342445255
H -5.4101622178 2.1660877394 0.6314985273
H -3.9009357007 1.7505176092 1.4497911417
H -3.8927160865 2.9047925752 0.1119494864
H -2.6387912417 -0.3935241966 -1.4262763686
H -2.1165105291 1.8758215266 -2.2137123403
H -1.8591165039 2.4327197430 -0.5680651515
H 0.2502209356 2.0911908063 -1.6508208945
H -0.6560655394 -0.4877472208 -2.3193410138
H 0.7714111352 1.5013436593 1.9426328196
H 0.8231200604 2.6666979622 0.6182137456
H -0.7269361357 2.1495172582 1.2780760585
