38
CONF13
C -7.3593370229 0.3711897387 0.4903260050
C -6.9241300163 -1.0040636283 0.0311764506
O -5.4920149642 -1.1916637048 0.2264905832
C -4.6904119879 -0.6868840722 -0.7439871416
O -5.0856151075 -0.1634550484 -1.7707223154
N -3.3837845641 -0.8746170830 -0.3764863209
C -2.2264590220 -0.5366713154 -1.0896055630
C -1.0024064500 -0.8948798282 -0.5048263199
C 0.1755399847 -0.5882248139 -1.1600604725
C 0.1969418638 0.0659866992 -2.3840560172
C -1.0235174495 0.4195065271 -2.9485086542
C -2.2324271443 0.1286690046 -2.3221065974
O 1.3698143766 -1.0299984599 -0.5818450467
C 2.1789967383 -0.0601130659 -0.0234281885
O 1.8682867818 1.1090926123 0.0691831885
N 3.3292754923 -0.6542470935 0.3927017424
C 4.4186932239 -0.0594219036 1.0542437102
C 4.5287805743 1.3165343864 1.2851381953
C 5.6520214624 1.8095618344 1.9446964821
C 6.6679755843 0.9613899280 2.3751243877
C 6.5535829058 -0.4073102146 2.1385096525
C 5.4399682300 -0.9176140804 1.4851081801
H -7.1000633114 0.5285028256 1.5411377858
H -6.8919981773 1.1528303948 -0.1142442019
H -8.4454523367 0.4584265618 0.3861562833
H -7.3756924819 -1.7907781256 0.6391281880
H -7.1637243190 -1.1778956669 -1.0209268006
H -3.2465136946 -1.3357872669 0.5118240067
H -0.9670628381 -1.4090909671 0.4504563188
H 1.1393914320 0.2890484898 -2.8712067896
H -1.0400110523 0.9339964739 -3.9039882112
H -3.1671077742 0.4118994913 -2.7823835551
H 3.3888606460 -1.6508541020 0.2352649466
H 3.7509063101 1.9894121121 0.9545378405
H 5.7273670788 2.8785213268 2.1191456393
H 7.5376255823 1.3597984847 2.8868720344
H 7.3346064077 -1.0867366905 2.4650208318
H 5.3559645423 -1.9858644959 1.3054988132
