43
CONF38
C 1.4288820715 1.0244154311 2.4090187419
C 2.1871975503 -0.2796869876 2.4356217061
O 2.8660147911 -0.4035415173 1.1436016461
C 3.4240792145 -1.5826233892 0.8746601934
O 3.4744228448 -2.5247556816 1.6402546180
C 4.0585298065 -1.6302522518 -0.5155911180
C 5.5537848824 -1.3704562815 -0.4013904278
O 3.5338917722 -0.6398675153 -1.4038690599
C 2.2003833077 -0.6834042240 -1.7129769629
C 1.7106867067 0.4294208182 -2.4031208491
C 0.3690790838 0.4985878433 -2.7492813628
C -0.4726160669 -0.5486303752 -2.4008726540
C -0.0011492792 -1.6646113321 -1.7330660347
C 1.3462495764 -1.7388400703 -1.3845235099
O -1.8236942562 -0.4969666975 -2.7854953154
C -2.7050425764 0.0351323394 -1.9020155726
C -4.0632205981 0.0593432021 -2.3466196733
N -5.0166579617 0.5428305196 -1.5960964404
C -4.6585737163 1.0250661345 -0.3660307480
C -5.6542916097 1.5549058915 0.4785507945
C -5.2826138356 2.0359545108 1.7110812347
C -3.9469264509 2.0167300542 2.1542498429
C -2.9685538679 1.5007925956 1.3349950465
C -3.3002678239 0.9949991183 0.0617179712
N -2.3211490674 0.4846414566 -0.7410678270
Cl -6.5066250912 2.7006158741 2.7826337342
H 0.8988836295 1.1502201552 3.3576350597
H 0.6928087484 1.0268218740 1.5994730446
H 2.1069085875 1.8719164764 2.2763131162
H 1.5231861400 -1.1406710885 2.5542940455
H 2.9471292851 -0.3061615005 3.2224769501
H 3.8847168249 -2.6377796495 -0.9145192537
H 6.0124742384 -1.4480219645 -1.3899301501
H 5.7365122909 -0.3713082455 0.0037716785
H 6.0070068199 -2.1142329571 0.2578175791
H 2.3903593493 1.2371880363 -2.6531415388
H -0.0258944752 1.3613394729 -3.2754749980
H -0.6801479323 -2.4710972526 -1.4767070976
H 1.7006165191 -2.6189793412 -0.8611666255
H -4.3122613666 -0.3326050061 -3.3310673133
H -6.6843650926 1.5716849929 0.1411154913
H -3.6973191677 2.4066018097 3.1345020436
H -1.9324334133 1.4752846376 1.6564557939
