39
CONF12
C 7.6031029874 3.2288115795 0.6249422913
C 6.7521188536 2.3891138584 -0.3245664676
C 6.1528035235 1.1569073463 0.3526202986
C 5.2749482003 0.3326622648 -0.5863386058
C 4.6217503308 -0.8853609469 0.0829512841
C 5.6023632511 -2.0587546548 0.2438886341
C 5.1661161748 -3.0945458100 1.2795189978
C 3.4085278700 -1.3447169273 -0.7163089392
O 2.3351116659 -0.3559686570 -0.6543810597
C 1.5208991400 -0.4505133335 0.4063113772
O 1.5525658158 -1.3167508708 1.2484425459
C 0.4693866395 0.6211871288 0.3860522813
C -0.8469407653 0.1926055322 0.2695066224
C -1.8856490886 1.1097609698 0.2385540773
C -1.6265520231 2.4805929025 0.3438202138
C -0.2990098595 2.9164262763 0.4990607240
C 0.7444499200 1.9817618464 0.5173430712
Br 2.5385674315 2.5289543010 0.8140045933
Br 0.0772609050 4.7610132255 0.6863161194
Br -3.0504637763 3.7214532717 0.2951170316
Br -3.6467858862 0.4281805804 0.0505214435
H 8.4387043319 2.6439588022 1.0242987468
H 8.0190778715 4.1064466046 0.1212782710
H 7.0090580847 3.5809510425 1.4753156146
H 5.9392844517 3.0035290982 -0.7348556121
H 7.3582057301 2.0712330824 -1.1830948667
H 6.9644575041 0.5401989482 0.7612707214
H 5.5503918754 1.4758497753 1.2157799806
H 5.8687471811 -0.0110464632 -1.4464580277
H 4.4902737392 0.9843235308 -0.9893148942
H 4.2655536287 -0.5943445254 1.0818281540
H 6.5820785667 -1.6594039680 0.5287736135
H 5.7471950670 -2.5380949598 -0.7353066008
H 5.0808642688 -2.6364221553 2.2699986327
H 4.1933273443 -3.5338809622 1.0401722749
H 5.8910719890 -3.9111431374 1.3465881306
H 3.0168454704 -2.2998685990 -0.3591156703
H 3.6471919715 -1.4152889504 -1.7818468689
H -1.0562522330 -0.8680230483 0.2018308307
