64
CONF367
C 8.8884160534 -0.9431361850 3.9590680247
C 8.7185441882 0.2937206316 3.0944447986
O 9.0602189106 1.3988153033 3.5000581560
N 8.1887518783 0.1119335896 1.8406217883
C 7.6090942588 -1.1197658409 1.3254750854
C 6.1039107238 -0.9562853009 1.1113490358
N 5.8520065501 0.1668219282 0.2170179427
C 6.4150668142 1.4098924409 0.7711980606
C 7.9159312606 1.2648438998 0.9891195582
C 4.5270042258 0.2905953151 -0.2771243280
C 4.2846079505 1.1612939525 -1.3524685978
C 3.0170112384 1.3070622951 -1.8829643419
C 1.9485695864 0.5685261979 -1.3659019060
C 2.1679309309 -0.3158252115 -0.3149634455
C 3.4492715605 -0.4389136246 0.2271834587
O 0.7302561197 0.7764605349 -1.9643720464
C -0.3794928885 0.0763963322 -1.4075604959
C -1.6109163951 0.5566880672 -2.1558984987
C -2.0163540156 1.9793919687 -1.7918180415
O -2.8504044013 1.7720233125 -0.6405092486
C -3.5682009479 0.5813425305 -0.8915895727
O -2.7425440109 -0.2243386494 -1.7289035190
C -3.8157287304 -0.1067526317 0.4652169074
N -2.5892985234 -0.4678706468 1.1400145752
C -1.8230460441 0.3412931718 1.9541529558
C -0.7140836076 -0.3995740873 2.2702495539
N -0.7699764147 -1.6373729987 1.6674260605
C -1.9013799326 -1.6423739703 0.9954192132
C -4.9037004557 0.8747276897 -1.5830812587
C -5.7091331341 -0.1043765541 -2.1758970807
C -6.9211515987 0.2108428661 -2.7824305034
C -7.3429642227 1.5330174265 -2.7886001873
C -6.5843445603 2.5335881842 -2.1967297563
C -5.3804170806 2.1875154872 -1.5988986613
Cl -8.8633855500 1.9337326817 -3.5526593373
Cl -5.2588850995 -1.8001655953 -2.1882663346
H 7.9216425021 -1.3823388794 4.2264179470
H 9.4850576530 -1.7135324045 3.4607947514
H 9.3961560904 -0.6319733725 4.8709942626
H 8.0816186296 -1.3631553623 0.3624913886
H 7.7931188303 -1.9471309159 2.0114923339
H 5.7060859116 -1.8697165250 0.6552504297
H 5.6181399728 -0.8242557910 2.0993683623
H 6.2270749397 2.2332158099 0.0775763246
H 5.9298036738 1.6623069086 1.7333586592
H 8.3228891392 2.1517395533 1.4784894029
H 8.4146457553 1.1210154074 0.0201551208
H 5.1115339621 1.7099787739 -1.7916806107
H 2.8370837860 1.9757060590 -2.7182131262
H 1.3643102765 -0.9049005584 0.1128435612
H 3.5820388692 -1.1189021353 1.0602599348
H -0.2665775628 -1.0087229939 -1.5356520100
H -0.4799120763 0.3005044375 -0.3368412957
H -1.4800967333 0.4226721852 -3.2351457324
H -1.1728382481 2.6053826671 -1.4954263028
H -2.5861711672 2.4598915425 -2.5990882827
H -4.3940593805 0.5803337983 1.0908906715
H -4.4131835218 -1.0062222850 0.3009099653
H 0.1187118350 -0.1110188074 2.8957303713
H -7.5223874450 -0.5653183297 -3.2385769235
H -6.9285451880 3.5606073467 -2.2016110422
H -4.7761525233 2.9551754373 -1.1289805950
H -2.1348038125 1.3405995772 2.2136177940
H -2.2833269326 -2.4517644679 0.3867158853
