53
CONF246
C -4.8454132889 0.2437105802 -3.5250140403
O -3.9876022269 -0.5884578487 -2.6934831785
C -3.6577606974 -0.0710243835 -1.5118335572
O -4.0230258353 1.0049628562 -1.0899318120
C -2.8001679810 -1.0547756193 -0.6899015619
C -3.7584622492 -1.8250752063 0.2542944044
C -3.7236908877 -0.9921148894 1.5138735601
C -4.5864940211 -1.0438018980 2.5963310275
C -4.2984508214 -0.2204886998 3.6833821270
C -3.1905030250 0.6270522814 3.7198530525
C -2.3316860200 0.6696566649 2.6276446206
C -2.6120471004 -0.1345432060 1.5266829141
C -1.8925920635 -0.3213786516 0.2809368552
N -0.6295176675 -0.1524418103 0.1200991151
N -0.1052802354 -0.5808107532 -1.0678148296
C -0.9768692008 -1.1469630513 -2.1096131814
O -2.0130108248 -1.9104669468 -1.5038289183
C 1.2606391460 -0.6261743668 -1.2306902662
O 1.7743590504 -0.8214395900 -2.3219149833
N 2.0275042694 -0.3633753091 -0.0662234169
C 3.1455364602 0.5141317553 -0.1873602091
C 2.9813464818 1.7412460817 -0.8281478364
C 4.0642753899 2.6015494351 -0.9633167646
C 5.2875628623 2.2160115247 -0.4377485605
C 5.4667015310 1.0063927728 0.2158496723
C 4.3852421933 0.1421558122 0.3302019657
O 6.3744431677 3.1190173493 -0.4995346361
C 7.1523233477 3.0413149831 -1.6015249934
F 6.4767787303 3.3070092722 -2.7436472726
F 7.7169060188 1.8223004992 -1.7625721287
F 8.1313168896 3.9445688222 -1.4746660745
C 1.7388420610 -0.9450304866 1.1758428559
O 2.0840259931 -0.4759628482 2.2393072143
O 1.0979437460 -2.1099072032 1.0098093882
C 0.5264173326 -2.6723898012 2.2181469920
Cl -5.3769122654 -0.2519430735 5.0704096156
H -4.9948725890 -0.3276023072 -4.4392759225
H -4.3479810092 1.1927384139 -3.7350069009
H -5.7945105539 0.4196540766 -3.0146805229
H -3.3291565076 -2.8172877075 0.4380812589
H -4.7608534750 -1.9540922806 -0.1611820299
H -5.4485993411 -1.7014004908 2.6064832558
H -3.0112735764 1.2499460572 4.5884602356
H -1.4697806749 1.3286349411 2.6332146932
H -0.3855714482 -1.8182898985 -2.7311958895
H -1.3955076319 -0.3332535961 -2.7187349786
H 2.0084363048 2.0288132341 -1.2138366215
H 3.9560087868 3.5636616359 -1.4508457637
H 6.4379865266 0.7424227872 0.6187290271
H 4.5062783901 -0.8166805882 0.8219374124
H -0.1607185149 -1.9525785773 2.6709721920
H -0.0109239516 -3.5612333590 1.8909219125
H 1.3183601059 -2.9359677957 2.9220605679
