31
CONF25
C -1.3169625535 -0.4734946936 -0.8442906690
C -2.2622279811 -0.6074718121 -1.8511701731
C -3.5263021363 -1.0880440501 -1.5271620467
C -3.8595343004 -1.4474542344 -0.2273017495
C -2.9005566535 -1.3219807791 0.7699881678
C -1.6234765080 -0.8255552408 0.4774996446
C -0.5972966911 -0.7122176762 1.5295767497
N 0.2408171982 0.2400822577 1.7392079523
O 0.0755727234 1.3090350618 0.8928778848
C 1.1356042172 2.2637143165 1.0739572818
C 2.2997112858 1.9959026200 0.1438531334
O 2.8579154638 0.7219954833 0.3774510412
C 3.5455703072 0.4195517185 -0.8489622232
C 2.5862301982 0.9586098320 -1.9097646571
O 1.8683182251 2.0065115874 -1.2194722867
C -0.4792856998 -1.8329632177 2.5451018252
F -1.4361433192 -1.7274662382 3.5093516905
F 0.7074799826 -1.8582723393 3.1745374853
F -0.6527551438 -3.0390165318 1.9559740254
Cl -4.7303888334 -1.2494597728 -2.7949194893
H -0.3293732953 -0.1052433606 -1.0927186352
H -2.0165759590 -0.3434148049 -2.8733832433
H -4.8494354256 -1.8215878773 0.0068048333
H -3.1657346852 -1.6034682810 1.7827968552
H 1.4736010641 2.2637794738 2.1146158900
H 0.7016078682 3.2359615798 0.8263100469
H 3.0634397124 2.7835183252 0.2925742809
H 4.5111771984 0.9430857077 -0.8752550326
H 3.7006267864 -0.6589882506 -0.9021560515
H 1.8698927871 0.1977084535 -2.2392502446
H 3.1084850508 1.3766429495 -2.7757193890
