55
CONF193
C 4.8810133886 -2.5708913986 -3.3818191339
O 4.8535016426 -2.9695958289 -2.0047523869
C 3.7820250089 -2.5838125722 -1.2584336817
C 3.7916292458 -2.9950897032 0.0793779284
C 2.7408185868 -2.6536102426 0.9147044512
C 1.6606319679 -1.8941546895 0.4486699544
C 1.6615775625 -1.4982337508 -0.8886809457
C 2.7079779323 -1.8327909436 -1.7442641889
C 0.5648035382 -1.5219957133 1.4129337928
S -1.0788044310 -1.9225519640 0.6321558687
C -2.2110325079 -0.9074304111 1.5640195907
C -3.2019411480 -1.5245709898 2.3329707577
C -4.1623200848 -0.7661789194 2.9918645998
C -4.1197531254 0.6238181075 2.9125711267
C -3.1282406941 1.2497889206 2.1679459156
C -2.1766045235 0.4967952261 1.4759447204
N -1.2036171204 1.1730230231 0.6887854877
C -1.6740599717 2.0756397642 -0.3758242144
C -1.8723528685 1.2928037752 -1.6751716928
N -2.3322836120 2.1504891876 -2.7681981411
C -2.1743375976 1.4521692737 -4.0470130776
C -3.7359355797 2.5349531398 -2.5913039632
C 0.1371203502 0.9305574224 0.7810268931
O 0.9647483131 1.4787938519 0.0592974724
C 0.5641295259 -0.0530171076 1.8753875326
O 1.9116824563 0.2295893206 2.2842339342
C 2.0890321329 1.4152921943 2.9226793368
C 3.5337087017 1.6484144077 3.2314620016
O 1.1741420002 2.1707446582 3.1733274069
H 5.8081230080 -2.9763709673 -3.7876259998
H 4.8842354291 -1.4786090787 -3.4747754169
H 4.0265125616 -2.9868272886 -3.9282551132
H 4.6266723784 -3.5841305785 0.4446245506
H 2.7592272844 -2.9783821667 1.9513136517
H 0.8328432865 -0.9193706735 -1.2820926734
H 2.6703719874 -1.5067157386 -2.7761944572
H 0.6695237420 -2.1349844610 2.3136946206
H -3.2156391115 -2.6071799085 2.4017744679
H -4.9316998171 -1.2595786574 3.5764315804
H -4.8506344789 1.2253460311 3.4429166867
H -3.0807633235 2.3330141337 2.1259197799
H -0.9325381749 2.8646923398 -0.5191358434
H -2.6071182268 2.5291878406 -0.0386158061
H -0.9055519279 0.8607330429 -1.9580340067
H -2.5687829176 0.4490612228 -1.4917944192
H -1.1212161059 1.1978043977 -4.2043598577
H -2.4984633717 2.1047380114 -4.8642042657
H -2.7683933030 0.5193621653 -4.0952829480
H -4.0489679691 3.1626760483 -3.4315022020
H -4.4074349088 1.6558604187 -2.5457353799
H -3.8688126472 3.1161564951 -1.6745528664
H -0.0945948542 0.0491039058 2.7429187138
H 4.0275027563 1.9917116488 2.3155087087
H 3.6264937812 2.4193460539 3.9956921794
H 4.0218440400 0.7244090209 3.5474685629
