43
CONF16
C -0.7005866578 -1.8724107733 -0.1682176259
C -1.8120736039 -0.9706738907 -0.6803388553
C -2.2931787868 0.0880604127 0.2793312616
C -3.6780669471 0.0023357058 0.3915419274
C -4.3975940862 0.8084591574 1.2616873103
C -3.6952229586 1.7195789738 2.0511307430
C -2.3139543625 1.8336604099 1.9383463305
C -1.5983855166 1.0303151291 1.0407369306
N -0.1943938895 1.1703995618 0.9853606318
C 0.5277492455 1.3004466445 -0.1742331995
O -0.0037626632 1.3588154326 -1.2846081234
C 1.9864667202 1.3612114850 -0.0182665722
C 2.8215063438 0.8591422595 0.9804042670
N 4.0944457229 1.1315600205 0.6406832381
N 4.1539394809 1.8006574958 -0.5384495824
C 2.8929041112 1.9354669537 -0.9502751261
C 2.5917230895 2.6345598782 -2.2293578473
C 5.3084577047 0.7683086721 1.3573223621
Cl 2.4657470235 -0.0293369229 2.4112719589
C -4.1907471591 -1.0613204545 -0.5491558561
O -2.9852514627 -1.7906068225 -0.9001384962
C -5.1530118955 -2.0444918703 0.1004288591
C -4.7965640170 -0.4289503925 -1.8062258858
H -0.5666291408 -2.7089860477 -0.8599808931
H 0.2476305941 -1.3328873953 -0.1015280038
H -0.9546461206 -2.2659827014 0.8206714464
H -1.5032074345 -0.5056248473 -1.6287075769
H -5.4773066930 0.7251176730 1.3393539659
H -4.2261064337 2.3541618101 2.7536797954
H -1.7751807577 2.5572490580 2.5432808034
H 0.2643212391 1.4132623137 1.8518655347
H 1.8309980725 3.4065220299 -2.0840318337
H 3.5029189757 3.0950561174 -2.6176813044
H 2.2004012846 1.9339624055 -2.9724756519
H 5.4175786310 -0.3194660665 1.3934058770
H 6.1473688879 1.2038950552 0.8158592236
H 5.2789096010 1.1660601396 2.3750388398
H -6.0860288352 -1.5399916510 0.3690453807
H -5.3881349366 -2.8511783975 -0.6005901200
H -4.7094808958 -2.4738600470 1.0030019827
H -4.0714065114 0.2365862047 -2.2846239200
H -5.6857414507 0.1554954624 -1.5484980085
H -5.0839665643 -1.2119197437 -2.5150068721
