16
CONF2
C -1.2151222623 -0.7019621939 -0.0222675086
C 0.1875748260 -0.8408350379 0.1171437210
C 1.0008479273 0.2857959692 0.0914977809
N 0.5021734802 1.5193697520 -0.0639296689
C -0.7958125789 1.6728643092 -0.1753853082
C -1.7003448086 0.6139200303 -0.1599014910
Cl -3.4155907660 0.8560689267 -0.3205494221
Cl -1.3816271353 3.3095535389 -0.3540336602
C 2.4870434882 0.2082017377 0.2910156050
O 3.0430220410 -0.5909231912 1.0057282018
O 3.1303491006 1.1633325329 -0.4115160593
Cl 0.8193102952 -2.4597467819 0.2571262580
N -2.0398913135 -1.7693265879 -0.0245714472
H 4.0719312323 1.0679262944 -0.1968438402
H -3.0314328198 -1.6402863239 -0.1167526869
H -1.6624302988 -2.6939527788 0.0832395260
