45
CONF29
C -6.6069736275 -0.8821986374 -0.9627315331
O -5.7032437905 0.0220292568 -0.2950139736
N -4.4056741697 -0.3969485991 -0.4943816537
C -3.5329077769 0.3639079929 0.0908656448
C -3.7858542818 1.5275728712 0.8968897252
C -4.8909764126 2.2995687746 1.1762840579
C -4.4749265407 3.2883152733 2.1059593524
C -3.1533966809 3.0592044745 2.3488658345
O -2.7133410010 1.9984308733 1.6269762446
C -2.1054124523 -0.0366634235 -0.1905864237
O -1.2469002723 0.7880703193 -0.4964682895
N -1.8541087909 -1.3654058179 -0.1091571548
C -0.5792023410 -1.9058786027 -0.4628948286
C 0.6904293070 -1.5189865358 0.3569009453
N 1.2955509307 -1.0523582482 -0.8908335688
C 0.1826880227 -1.3207476906 -1.6795517287
O -0.0295619409 -1.2042164110 -2.8615671356
C 2.6540297005 -0.9091566459 -1.1564713747
C 3.5849298483 -1.3231661801 -0.2692553988
C 3.2307211550 -1.9520527428 1.0526392730
S 1.6539788254 -2.9040685064 1.0610022219
C 5.0567112084 -1.1131247433 -0.4702309689
O 5.5993372245 -0.3306881762 0.6309983025
C 5.3740696047 1.0138894579 0.5397461389
O 4.8450758564 1.5504755287 -0.4237522394
N 5.7953136449 1.6439353563 1.6569642414
C 2.9921873673 -0.2095616021 -2.4332893738
O 3.8652211710 -0.5539962924 -3.2016633895
O 2.2079054385 0.8649172695 -2.6160624926
H -6.4109971526 -0.8884923984 -2.0390270540
H -6.5093262093 -1.8910613139 -0.5507512263
H -7.6038218813 -0.4868991663 -0.7624631213
H -5.8756683375 2.1754182181 0.7586594751
H -5.0804298208 4.0692389078 2.5411482158
H -2.4186255420 3.5366398440 2.9792469244
H -2.6055979239 -1.9949262674 0.1315459215
H -0.6692477796 -2.9907944774 -0.5736476838
H 0.5523842755 -0.7181865530 1.0889228389
H 4.0116088505 -2.6636623899 1.3391000257
H 3.1861578307 -1.1891023894 1.8393157950
H 5.5826954153 -2.0691523078 -0.3991153704
H 5.2951246459 -0.6334907332 -1.4165310017
H 5.8248746597 2.6498884895 1.6505002583
H 6.3322156873 1.1488960476 2.3505328733
H 2.4429833416 1.2735563107 -3.4676175260
