33
CONF14
C -3.2522876419 2.2894252457 2.3312738711
C -2.4210568056 1.1641966852 1.8481548421
N -1.1581554743 1.2489742332 1.5627800700
N -0.7860875229 -0.0224174310 1.1488903042
C -1.8307461190 -0.9254087191 1.1601157098
O -1.8539076999 -2.1026554332 0.8577463274
N -2.8946308289 -0.1250366884 1.6280854883
C -4.1989603229 -0.6447856498 1.8310303538
F -4.5689252303 -0.5113456329 3.1427889957
F -5.1157487632 0.0648874227 1.1041289479
C 0.5270625858 -0.3043230253 0.7224303796
C 1.6172182068 -0.1875191425 1.5922224313
C 2.8984639808 -0.4859323775 1.1486175795
C 3.0826796710 -0.9079971537 -0.1601908729
C 2.0041218030 -1.0674394456 -1.0437524214
C 0.7269231908 -0.7602951569 -0.5742521803
N 2.1740443748 -1.5354055499 -2.3635831121
S 1.8439076344 -0.4572923974 -3.6690762977
O 0.4568747443 -0.0105106113 -3.5185427936
O 2.2908148386 -1.1791705416 -4.8627920201
C 2.9218518965 0.9642905499 -3.3904536470
Cl 4.7099509334 -1.2652127088 -0.6981363410
Cl 1.3904700892 0.2848343999 3.2503360204
H -2.6206869623 3.1741345645 2.4174633942
H -4.0714985102 2.4945124312 1.6358510112
H -3.6886012758 2.0596622450 3.3080751339
H -4.2263923358 -1.7001251073 1.5417243471
H 3.7438493675 -0.3948173387 1.8190729448
H -0.1230088882 -0.8819558805 -1.2341346169
H 3.0771042320 -1.9748280515 -2.5278623814
H 2.6984580768 1.6853262047 -4.1806096370
H 3.9590751936 0.6285012444 -3.4468874441
H 2.6878248690 1.3857295098 -2.4097932064
