61
CONF4
C -0.9893959926 -1.6524169361 -3.0611909267
C -0.8927170793 -0.1645520416 -2.6964312314
C -1.7844470563 0.1966737258 -1.5338507125
C -3.0078459589 0.8190994815 -1.7795955129
C -3.8873461588 1.1477608513 -0.7462291674
C -3.5134475061 0.8350480244 0.5591365543
C -2.3002238157 0.2063833792 0.8496125130
C -1.4262065759 -0.1153655964 -0.2056389737
C -0.1183161673 -0.7354119051 0.0693446125
C 1.0957270687 -0.1157374928 0.0334481123
N 2.1191082225 -0.9374024158 0.4117253343
C 3.4731566733 -0.8646377259 -0.1458020011
C 3.6772300298 -1.7186005745 -1.3978246713
O 3.9791860129 -3.0820916059 -1.1088719466
C 2.8621228542 -3.8452369115 -0.6542328259
C 2.3151330334 -3.3976094179 0.7001186215
N 1.5296281508 -2.1802421862 0.6283346555
C 0.1515427204 -2.1152399231 0.4188339374
O -0.6106362293 -3.0854856414 0.5481439528
O 1.3754093793 1.1616525394 -0.3461791007
C 1.0369820801 2.1770640433 0.5556426339
O 0.7419151493 1.9330096507 1.6938169634
C 1.0723948013 3.5289079289 -0.1248332925
C 0.9651837273 4.6197475794 0.9431488563
C 2.3689033452 3.6949401643 -0.9335000377
C -0.1508480893 3.5868918571 -1.0648663285
C -1.9743875730 -0.1164389313 2.2864228293
C -2.7683063798 -1.3244567651 2.8029537368
C -5.2102595006 1.8028625759 -1.0354229453
H -0.6918657057 -2.2808781725 -2.2160776863
H -0.3382062743 -1.8866766772 -3.9093985570
H -2.0168861183 -1.9161135084 -3.3320619925
H 0.1488579678 0.0828304682 -2.4662171980
H -1.1808807506 0.4409999798 -3.5623905643
H -3.2768865262 1.0628322269 -2.8052112356
H -4.1785210199 1.0957474164 1.3803045602
H 3.6399073125 0.1897019911 -0.3825447216
H 4.1966756339 -1.1537479326 0.6234849905
H 4.5489070873 -1.3314028398 -1.9338751938
H 2.7967360976 -1.6442724756 -2.0573399771
H 2.0527322736 -3.8188316973 -1.4014986738
H 3.2259019916 -4.8731514782 -0.5627354322
H 1.6260165403 -4.1620812334 1.0724234499
H 3.1236074353 -3.2830767493 1.4306794037
H 0.0415509400 4.5176479134 1.5182933711
H 1.8112271984 4.5770922140 1.6355289759
H 0.9653579117 5.5980155560 0.4539320189
H 3.2488075553 3.5875216850 -0.2911549411
H 2.4339748740 2.9667758638 -1.7450531364
H 2.3825954045 4.6989970391 -1.3682002070
H -0.1726542216 4.5678214069 -1.5498087298
H -1.0818494381 3.4561094444 -0.5034031775
H -0.0958257113 2.8142923081 -1.8362867307
H -2.2047110229 0.7586321336 2.9060732819
H -3.8453541669 -1.1366254753 2.7439586050
H -2.5407364678 -2.2129097495 2.2067558011
H -5.5118733758 2.4634831950 -0.2177372825
H -5.1711440601 2.3841917973 -1.9606236815
H -5.9969174027 1.0478599058 -1.1533756358
H -0.9027599710 -0.3075284963 2.3890186692
H -2.5154698313 -1.5346319970 3.8472301558
