54
CONF38
C -2.4674464027 -0.1830412229 2.2835501911
C -2.4639516675 0.1949955226 0.7880457434
C -3.2128581416 1.5415747218 0.6802889052
C -3.5870954630 1.9304645003 -0.7431547892
C -4.4381552142 0.8565899504 -1.3822187320
O -5.2696900182 1.0950753891 -2.2463119868
C -4.1472400204 -0.5159215542 -0.9521427512
C -3.2212326781 -0.8404243155 -0.0273425435
C -2.7314110664 -2.2476617896 0.0910080276
C -1.3209997843 -2.2488127360 -0.5203651463
C -0.4040389723 -1.2333003326 0.1661889059
C -0.9930790950 0.2046257420 0.2144801394
C 0.0005944151 1.0819749556 0.9879430196
C 1.3900126715 1.0687221184 0.3431821254
C 1.9928400398 -0.3241023098 0.2103932753
C 0.9952290973 -1.2919105049 -0.4645703438
C 1.0989415694 -0.9668998235 -1.9667516534
C 2.5440549743 -0.4695667980 -2.1895595587
C 3.1984866725 -0.3764018344 -0.7941369838
C 4.1301865859 0.8052022854 -0.6186919747
O 4.0267963143 1.8289035312 -1.2691395820
C 5.2143544856 0.6955789466 0.4314291065
O 5.9514756215 1.8798360302 0.5621955845
C 2.4307607761 -0.8975854344 1.5376394487
O 2.3904829426 -0.3291021784 2.6025369217
O -0.4711038433 2.4349882702 1.0038341894
H -3.4862283796 -0.4194486579 2.6065789145
H -2.1208370821 0.6703347980 2.8742926388
H -1.8323708224 -1.0379439972 2.5246223184
H -2.6352362499 2.3299853730 1.1584155546
H -4.1432868881 1.4213530187 1.2524060772
H -2.6897654423 2.0607311618 -1.3640741586
H -4.1316808011 2.8780880329 -0.7779732586
H -4.6644116193 -1.2967851659 -1.5061122515
H -3.3844360690 -2.9358944298 -0.4533105131
H -2.6835891596 -2.5787781759 1.1345881451
H -1.4109651981 -2.0037077117 -1.5861422755
H -0.8737767468 -3.2485785504 -0.4511820688
H -0.2813818535 -1.5628320693 1.2098793375
H -1.0564149486 0.5948074750 -0.8107392138
H 0.0783785534 0.7008866150 2.0175787128
H 2.0587529980 1.6950790111 0.9480648413
H 1.3165030370 1.5415004299 -0.6430009663
H 1.3779895179 -2.3144260317 -0.3150772948
H 0.8676622158 -1.8440322114 -2.5762544700
H 0.3781974838 -0.1914377937 -2.2421265994
H 3.1188481526 -1.1443754926 -2.8290267428
H 2.5607831473 0.5157267936 -2.6607292188
H 3.7633893192 -1.2940188525 -0.5728491198
H 5.8646857950 -0.1506934717 0.1435593517
H 4.7509304034 0.4187380865 1.3934767394
H 5.6129190753 2.4763826218 -0.1262337839
H 2.8198612265 -1.9440832624 1.4636556729
H 0.1895656314 2.9696217349 1.4593846064
