48
CONF12
C 2.4758400988 -2.2557753969 -3.3679873774
C 3.0422837530 -0.8442876929 -3.5004515159
C 2.7620520641 0.0639963721 -2.3017668713
C 1.2548649796 0.2440663727 -2.1014898439
O 0.6195944699 0.9980592815 -2.8341854733
N 0.6997564652 -0.5019754711 -1.1133001648
C -0.6779829224 -0.4049655037 -0.7556439319
C -1.0584520940 0.0486071807 0.6956775045
N -1.7163454636 -1.2530341516 0.8774934678
C -1.4383326735 -1.7054859907 -0.4065000763
O -1.7221087934 -2.7297560517 -0.9811384598
C -2.9692947511 -1.2805903197 1.5961305409
C -3.7283284051 0.0370601325 1.1890685851
S -2.3647824326 1.3132713939 0.9811547731
C -4.4470304408 -0.1910613415 -0.1407142786
C -4.7072444551 0.5358381245 2.2468610357
C -2.7098466222 -1.3694393005 3.0920980972
O -1.7381277529 -0.9109543887 3.6487353798
O -3.7090149693 -2.0130096914 3.7190782069
O 3.4074675294 -0.5168946183 -1.1597899854
C 3.5910881470 0.2660879440 -0.0438235068
C 4.3093684063 -0.3363792137 0.9929119588
C 4.5404303336 0.3635964499 2.1694147278
C 4.0602238608 1.6645683046 2.3262468244
C 3.3447692620 2.2540905062 1.2899971154
C 3.1014919034 1.5655654778 0.1007473832
H 2.7595093415 -2.8547356742 -4.2377667569
H 2.8590546216 -2.7563945741 -2.4741353545
H 1.3824994845 -2.2453747903 -3.3117581367
H 4.1293456872 -0.8775634066 -3.6313149474
H 2.6264055688 -0.3465231969 -4.3828505671
H 1.3094958049 -1.0877900808 -0.5585416030
H -0.2080406451 0.2329577374 1.3573522198
H -3.5587508923 -2.1462035263 1.2779681345
H -4.8800853569 0.7478385724 -0.4949152138
H -5.2547794536 -0.9189102307 -0.0012423305
H -3.7716655590 -0.5652985912 -0.9149404952
H -4.2144515847 0.7385688649 3.2013473798
H -5.1833942994 1.4580031038 1.9025095967
H -5.4911872772 -0.2124306331 2.4017425026
H -3.5258035748 -2.0101379841 4.6752280511
H 4.6781584782 -1.3481500810 0.8582762695
H 5.1006948988 -0.1110831948 2.9690732678
H 4.2416327347 2.2093498973 3.2466054721
H 2.9613033654 3.2640314511 1.3979746239
H -1.2149235606 0.1660758068 -1.5190623919
H 3.1775403704 1.0589964447 -2.5036927711
H 2.5333061499 2.0511251722 -0.6837251503
