47
CONF115
C -3.7561979335 0.6058105165 1.8238512983
C -2.2732730739 0.8647305369 1.6850862625
C -1.7446640089 2.2311480327 1.9733533811
C -1.8915303380 1.7907707527 0.5149873236
C -0.6699740016 1.5651237532 -0.2631298102
O 0.4515356579 1.3845967208 0.1644018815
O -0.9610798175 1.5724809601 -1.6039719144
C 0.1643255555 1.2671699546 -2.4759478562
C -0.1183815606 1.9517234426 -3.7355836172
N -0.3144985380 2.4847588644 -4.7406760691
C 0.3137944549 -0.2270379807 -2.6507610511
C -0.5909551943 -0.9457926466 -3.4337384244
C -0.4674401560 -2.3283590294 -3.5217071807
C 0.5344587636 -2.9960699656 -2.8239540789
C 1.4250039702 -2.2646427596 -2.0430431661
C 1.3333900597 -0.8774800385 -1.9613539740
O 2.4307675621 -2.9681221076 -1.4146349424
C 2.8977389428 -2.5159540346 -0.1869879491
C 4.2721927515 -2.5496553608 0.0182494205
C 4.7804879232 -2.1764613614 1.2603346206
C 3.9234143075 -1.7668996517 2.2794458083
C 2.5472926725 -1.7416593688 2.0558725083
C 2.0237207058 -2.1215156464 0.8237320536
C -2.5975799953 3.3214941179 2.4880071475
C -2.3113298680 4.6096535219 2.3102060908
Cl -3.2866502564 5.8997278684 2.9566036357
Cl -0.9263561969 5.1457727593 1.4019592399
C -1.4060027747 -0.3278550028 2.0140697850
H -4.0446847833 -0.2490367001 1.2041586334
H -4.3565313092 1.4669978565 1.5191811035
H -3.9959494043 0.3669254962 2.8661326518
H -0.7028166133 2.2671163718 2.2888112788
H -2.7295207557 2.1922672261 -0.0440992028
H 1.0790038025 1.6957919891 -2.0507398616
H -1.3837319202 -0.4315875844 -3.9681795046
H -1.1627861894 -2.8959569492 -4.1312992969
H 0.6341532584 -4.0750398762 -2.8769188737
H 2.0348854401 -0.3126911236 -1.3581922049
H 4.9256420989 -2.8655997897 -0.7882240292
H 5.8529409033 -2.2008799268 1.4263229182
H 4.3240492865 -1.4716751456 3.2435646052
H 1.8713905951 -1.4327919134 2.8473731118
H 0.9530398280 -2.1105838352 0.6477867583
H -3.4895832754 3.0800232277 3.0591584876
H -1.6295533701 -1.1605816529 1.3381353639
H -1.6197173445 -0.6548324047 3.0373233403
H -0.3424392737 -0.0953218220 1.9420801031
