42
CONF190
C 2.0252497702 2.0757329146 -0.1882296573
C 3.2645764398 1.2837451169 -0.6108076725
C 3.9816692149 0.6792774723 0.5985030233
C 2.9299925661 0.2284033108 -1.6508313179
O 1.9842695503 -0.7083934995 -1.0510579697
C 1.5579446915 -1.7091309662 -1.8290295496
O 1.9849069643 -1.9551467291 -2.9408603261
C 0.5330015217 -2.5345637613 -1.1250535541
C 0.7441455193 -3.9082601914 -1.0338802888
C -0.1478617831 -4.7076428097 -0.3244136071
C -1.2560258710 -4.1360511519 0.2943125721
C -1.4801081132 -2.7661048460 0.1966714384
C -0.5934450365 -1.9579746044 -0.5169477766
C -0.9204354627 -0.5264441131 -0.7643125131
O -0.7121868183 0.0373234394 -1.8238700316
O -1.5045016480 0.0458347907 0.2946806567
C -1.9524045572 1.4246366195 0.1175802367
C -2.5093538652 1.9106383215 1.4424987036
C -3.7196252922 1.0862023533 1.8819674905
C -2.8693624781 3.3920512221 1.3036899772
H 1.3202171021 1.4306635891 0.3470918726
H 1.5080154485 2.4985569307 -1.0559784827
H 2.3043529086 2.8963669704 0.4796641682
H 3.9578896343 1.9677499663 -1.1200707430
H 4.2853782023 1.4669310869 1.2947817284
H 3.3202214867 -0.0081338629 1.1360375937
H 4.8767391368 0.1268756257 0.2938884601
H 3.8198917427 -0.3289540812 -1.9614198245
H 2.4547270513 0.6685381378 -2.5344737945
H 1.6211136143 -4.3433774490 -1.5022123971
H 0.0269535689 -5.7760350398 -0.2521037003
H -1.9542925748 -4.7576482553 0.8449624079
H -2.3599584421 -2.3223920052 0.6494301541
H -2.7167599596 1.4402651772 -0.6687857586
H -1.0971278232 2.0261971244 -0.2056998610
H -1.7146972602 1.8124268654 2.1946639501
H -4.5229108945 1.1666002570 1.1397570141
H -4.1047736993 1.4514468377 2.8391035179
H -3.4659829160 0.0286939542 1.9986113816
H -3.2520791974 3.7796773338 2.2523075990
H -3.6481642358 3.5306218265 0.5446093156
H -1.9991977727 3.9907969366 1.0152254585
