42
CONF659
C -3.2612743975 -0.1928741752 0.4651972636
C -3.0448479017 1.3063363710 0.3464488774
O -2.5942572669 1.9346104175 1.5367189885
C -1.3236248798 1.5252576461 2.0426160155
C -0.1682926009 1.6256684348 1.0671002402
O -0.1177121386 2.9500942169 0.5413961950
C 1.0243302826 3.2072537952 -0.2577745260
C 1.1176262465 2.3663643353 -1.5225948069
O 1.7969171825 1.1458579836 -1.2371039953
C 1.7248295581 0.2215106334 -2.3129627534
C 2.5482159260 -1.0105729633 -1.9924298745
O 1.9680120634 -1.8503430243 -1.0026370017
C 2.3144264644 -1.4997761244 0.3393371387
C 1.5950805980 -2.4251137708 1.2989641251
O 0.2116993892 -2.1283240116 1.4473172294
C -0.6267977676 -2.7551365181 0.4788918290
C -2.0233255959 -2.2140943884 0.6526492842
O -2.0197458599 -0.8532527373 0.2554504373
H -3.9999902361 -0.5270185153 -0.2850620655
H -3.6638511475 -0.4246638685 1.4656094052
H -4.0042688732 1.7866576152 0.1263328375
H -2.3650317144 1.5061284994 -0.4969672696
H -1.1472770269 2.1935040377 2.8918457498
H -1.3518725674 0.4870952762 2.4093247845
H -0.2617839931 0.8789867710 0.2695266565
H 0.7583400681 1.3930706310 1.6210942189
H 1.9526893985 3.0681198983 0.3232923817
H 0.9479491314 4.2634237735 -0.5370056283
H 0.1013603107 2.1676892321 -1.9027773255
H 1.6696371590 2.9204016323 -2.3017407657
H 0.6772173908 -0.0715009963 -2.4965031801
H 2.1209352794 0.6792468592 -3.2384364251
H 3.5671746997 -0.7101712686 -1.7002354026
H 2.6192397467 -1.6162992091 -2.9041887513
H 3.4042584786 -1.6129715911 0.4822837596
H 2.0397635368 -0.4597911291 0.5538393224
H 1.7415787027 -3.4734476035 0.9920090317
H 2.0408774892 -2.2951342898 2.2926473048
H -0.2735058475 -2.5495074117 -0.5391860589
H -0.6376414253 -3.8477477964 0.6350802362
H -2.3340544372 -2.3064697690 1.7069691686
H -2.7230037266 -2.8030670883 0.0337153220
