43
CONF50
C 6.2913723208 -1.7213632568 -0.6411642404
O 5.0097741896 -1.5031031601 -1.2455265262
C 4.2795308945 -0.4262081887 -0.8309288080
C 3.0471547506 -0.2673831065 -1.4681037968
C 2.2795733618 0.8158013513 -1.0668166155
C 2.6971152271 1.7317031254 -0.0680532519
C 3.9325788730 1.5529828753 0.5507217700
C 4.7175629509 0.4723753269 0.1661785773
N 1.7277411572 2.7129582802 0.1185824530
C 0.7777446600 2.3748149379 -0.7153873822
N 1.0427140894 1.2689183861 -1.4712388308
S -0.7707380036 3.2710771064 -0.9620596351
O -1.4070385870 2.5935948720 -2.1746958570
C -1.6473088975 2.6252325001 0.5859110838
C -1.7965341543 1.1418397038 0.5674501895
N -0.7677335697 0.4542591428 1.0880610237
C -0.8174419472 -0.8787158914 1.0587274856
C -1.8829303051 -1.6102876979 0.5380910880
C -1.8809291926 -3.1080884891 0.5178973882
C -2.9563625449 -0.8721895327 0.0292744430
O -4.0197542604 -1.5582785667 -0.5080676924
C -5.1469057040 -1.6690752908 0.3890502395
C -2.9330955511 0.5282498363 0.0119295545
C -4.0762802946 1.3167749987 -0.5617920204
H 6.9622696256 -0.8734284043 -0.8211830559
H 6.1952637962 -1.8965179324 0.4366560767
H 6.6933742389 -2.6137165090 -1.1217202772
H 2.7251148082 -0.9662707111 -2.2318362928
H 4.2768597536 2.2388655981 1.3178395838
H 5.6767810561 0.3277206854 0.6465560617
H 0.4173557493 0.8620268243 -2.1528336170
H -1.0146705714 2.9640400107 1.4110225860
H -2.5937956573 3.1700121552 0.5913563666
H 0.0367740818 -1.4068026987 1.4822668082
H -2.7368659563 -3.5148994433 1.0655687026
H -0.9643869787 -3.4948582596 0.9691199088
H -1.9506516229 -3.4826534684 -0.5084358754
H -5.9107151951 -2.2336238982 -0.1476186607
H -4.8577807033 -2.2056400677 1.3000126837
H -5.5357633721 -0.6798119618 0.6546144606
H -3.7118123037 2.1370393329 -1.1827140216
H -4.7117340886 0.6774785471 -1.1766129035
H -4.6954274300 1.7451515681 0.2356281392
