76
CONF1
C -0.7507151156 -1.8858092661 -1.1625873493
C -1.9459375863 -1.1025859145 -0.6448893186
C -3.2316008849 -1.6053446463 -1.2431340868
C -4.4696881268 -1.3857543320 -0.7767466982
C -5.6465766987 -1.9914914122 -1.4973218749
O -6.4389474125 -0.9958994920 -2.1648197282
C -4.8577393636 -0.4831665321 0.3718396661
C -3.8281118214 0.5645876247 0.8096280576
O -2.9399181832 0.0746082186 1.8352313682
C -4.4833144103 1.8194731623 1.4343758084
O -5.2529991873 1.7741669368 2.3787922093
C -3.9529168548 3.0108284239 0.7629871883
C -4.3431363588 4.3870754167 1.1755608035
C -3.1150393875 2.6163762302 -0.2154025761
C -3.0448035131 1.1280087099 -0.3853831698
C -1.7150688700 0.4420478267 -0.7689173419
O -1.5166179873 0.8601556940 -2.1141063966
C -0.4811139716 0.7878945745 0.1123760686
C -0.1826448582 2.2827464488 0.2327566072
C 0.7779998816 0.1062000768 -0.4577029117
O 1.7893323593 0.1092800697 0.5893353583
C 3.0574880474 0.4409201458 0.2341696006
O 3.3566894176 0.7478347699 -0.9164177343
C 3.9867903170 0.3921718096 1.3660333433
C 3.5300183039 0.0232338644 2.6412881930
C 4.3776895404 -0.0398580736 3.7306761358
C 5.7272012130 0.2758073494 3.5522273478
C 6.2166946670 0.6453809172 2.3147318331
C 5.3694110835 0.7164644151 1.1852448156
N 5.8616321040 1.0799726370 -0.0250550750
C 7.2422679589 1.4350085196 -0.2612358969
C 0.6255201688 -1.2916401799 -1.0035123399
O 1.6288080797 -1.5845549032 -1.9929336604
C 1.5643174490 -0.9515372876 -3.1804728352
C 2.7816598962 -1.2381670437 -4.0043422523
O 0.6511729612 -0.2270161827 -3.5231692889
C 0.2529127838 -2.5102125978 -0.2017114939
C 0.0713009735 -2.4250672746 1.2977578167
C 0.8646879551 -3.8308683412 -0.6277217813
H -0.9040378806 -2.4373987108 -2.0873906093
H -2.0225920067 -1.2791516047 0.4303071813
H -3.1400283972 -2.2398712228 -2.1246903754
H -5.3039709859 -2.7602300489 -2.2047807838
H -6.3325660941 -2.4669294969 -0.7860358581
H -5.8555608410 -0.5465153274 -2.7882568389
H -5.7665665654 0.0475805096 0.0541554616
H -5.1628929854 -1.0782147180 1.2439983246
H -3.4647395129 0.0487798953 2.6482520824
H -5.4288664757 4.5133643178 1.1097311827
H -4.0735683627 4.5613923766 2.2226983783
H -3.8595209878 5.1439984336 0.5540394656
H -2.5991865051 3.2852405895 -0.8963829401
H -3.6498613160 0.9157502711 -1.2789188942
H -0.7617797889 0.3906853897 -2.5165983843
H -0.6781786891 0.3967126724 1.1125301435
H -0.9226837455 2.7878639109 0.8570769871
H -0.1664453056 2.7529509126 -0.7556183598
H 0.7949095000 2.4321228970 0.7013038646
H 1.1504760482 0.7306193802 -1.2749638474
H 2.4802609627 -0.2153046247 2.7586572801
H 4.0003783521 -0.3267056342 4.7053194499
H 6.4093018300 0.2331533941 4.3961794610
H 7.2673490120 0.8861227491 2.2085639398
H 5.1884086436 1.1234838072 -0.7781221649
H 7.9261652639 0.6052958975 -0.0336045002
H 7.3589922611 1.6869935223 -1.3172273014
H 7.5539152471 2.3070322659 0.3314157815
H 2.6008391868 -0.9535072160 -5.0399987448
H 3.6038494827 -0.6392539497 -3.5981988938
H 3.0682347119 -2.2891080156 -3.9287010438
H 1.0266654580 -2.6307618429 1.7914189464
H -0.6514031073 -3.1806917533 1.6261612540
H -0.2749633392 -1.4544180033 1.6498719581
H 1.8836073882 -3.9303022269 -0.2382962617
H 0.2633902581 -4.6517454581 -0.2224026614
H 0.9059652139 -3.9403033348 -1.7124546772
