47
CONF98
C -2.5214013961 -0.6887490283 -0.2056337630
C -1.9302219190 -0.8249557701 -1.5886298878
C -1.5956612935 -2.2509182826 -1.9692961776
C -2.3753243404 0.0766653532 -2.7087611653
C -3.3908700889 1.1134121249 -2.5143830203
C -4.1079938133 1.6751760983 -3.4875887585
Br -5.4502305995 2.9747089567 -3.1135662242
Br -3.9012567994 1.2727763954 -5.3367383053
C -0.9522420482 0.2220665517 -2.1222071884
C -0.5831757140 1.4090422906 -1.3428567355
O -1.3036011502 2.1412689287 -0.6987441445
O 0.7720167739 1.6105639613 -1.4370963561
C 1.2627411642 2.7390345123 -0.6794061116
C 2.5753204013 3.0462630317 -1.2505750102
N 3.6211905348 3.3108766018 -1.6621232733
C 1.3828586092 2.4413997791 0.8030713297
C 1.0570144434 3.4290807011 1.7292633514
C 1.2115614775 3.1658865210 3.0879925249
C 1.6686485435 1.9267534772 3.5208447167
C 1.9799388547 0.9479154877 2.5791823390
O 2.4856773355 -0.2409668723 3.0601267634
C 2.1927738620 -1.4121454568 2.3726041357
C 3.2450292018 -2.2772438198 2.0987669739
C 2.9742039991 -3.4980713813 1.4843727747
C 1.6677643364 -3.8430887277 1.1468104371
C 0.6245258544 -2.9631148657 1.4329302476
C 0.8790639179 -1.7416213772 2.0484390416
C 1.8526247219 1.1970881232 1.2156435497
H -2.6652215787 0.3457828819 0.1052240726
H -1.8592500758 -1.1701952011 0.5209448933
H -3.4878105584 -1.2030516067 -0.1737249495
H -2.4953045585 -2.8723595330 -1.9044199291
H -0.8466514359 -2.6593685964 -1.2824744701
H -1.2034458109 -2.3142657207 -2.9878639830
H -2.3578884177 -0.3656475403 -3.7000701584
H -3.5997341092 1.4524454133 -1.5060501048
H -0.1558939195 -0.1603217383 -2.7509054990
H 0.6082015812 3.6052440636 -0.8329001136
H 0.6826403481 4.3904248723 1.3922807465
H 0.9579204363 3.9273962327 3.8181141762
H 1.7829804719 1.7042762974 4.5763433519
H 4.2564669785 -1.9910918087 2.3674487749
H 3.7915733045 -4.1783745101 1.2669887007
H 1.4611985748 -4.7946023580 0.6681152044
H -0.3978885024 -3.2326793440 1.1870148888
H 0.0724684455 -1.0543788327 2.2836496729
H 2.1146636449 0.4344630219 0.4898417778
