45
CONF5
C 1.3876270060 -3.2464796857 0.7026346374
O 2.1042954107 -2.6231354524 1.7927138499
C 2.3753791241 -1.3198574814 1.6864214723
C 3.0703103025 -0.7090947405 2.7234639575
C 3.3293603232 0.6481044466 2.5511391641
O 4.0047150841 1.2721606462 3.5278934944
C 4.2762506815 2.6751689224 3.3496597616
N 2.9411063428 1.3440339076 1.4796972519
C 2.2782840861 0.6420201762 0.5564529786
N 1.8726607417 1.3875517372 -0.5446304943
C 1.0762980951 1.0615947273 -1.6443941337
O 0.7395520387 1.9235951472 -2.4379392035
N 0.7292363486 -0.2704908147 -1.7457542673
S -0.4995544618 -0.7691436962 -2.8097239126
O -0.0704985458 -0.5349455706 -4.1831200430
O -0.8485565797 -2.1071898361 -2.3382077235
C -1.8549673195 0.3289153832 -2.4579413545
C -2.6950886711 0.3443578780 -1.3413106146
C -3.6539124549 1.3220977806 -1.6568969758
N -3.4246261616 1.8675325391 -2.8505580330
N -2.3323225406 1.2602893158 -3.3295974270
C -1.7952261868 1.6896050056 -4.6190557835
C -2.6073668854 -0.3922296843 -0.1038569524
N -3.6567258604 -0.5756197661 0.7085714567
N -3.1006213620 -1.2321667975 1.7153843710
C -3.8477983927 -1.6850590005 2.8754909635
N -1.7984853998 -1.4544627283 1.5674668957
N -1.4675748138 -0.9235676452 0.4189831466
N 1.9818649415 -0.6560363022 0.5929583532
H 1.9655011634 -3.1823330019 -0.2240045922
H 0.4084931960 -2.7814335941 0.5656386211
H 1.2751533024 -4.2875590613 1.0038863760
H 3.3918415088 -1.2516223653 3.6008990099
H 4.8846911641 2.8418246301 2.4567511208
H 4.8227551784 2.9709909239 4.2451894416
H 3.3456957092 3.2424039497 3.2630460064
H 2.1093253397 2.3683782274 -0.5037417971
H 0.8643413115 -0.8473510130 -0.9032862735
H -4.4874085481 1.6505718845 -1.0527189382
H -1.8787560773 0.8865179127 -5.3536899365
H -2.3919983175 2.5486054643 -4.9240151988
H -0.7460179976 1.9645799198 -4.5008048191
H -3.1445940020 -2.1817878754 3.5438677731
H -4.3047591556 -0.8272647948 3.3744762354
H -4.6278789625 -2.3820692316 2.5599267216
