46
CONF13
C -0.1848018090 2.2631745724 -1.6823302408
C -0.7420384999 1.7265033300 -0.3648460062
C -2.2469336808 1.9484834858 -0.1853137510
C -3.1148195871 1.2773164336 -1.2334227548
O -2.8760441181 -0.1687205086 -1.2630268831
C -3.5704123115 -0.9160871725 -0.4033229933
O -4.4104724227 -0.5060434311 0.3722731480
C -3.2580054762 -2.4060968092 -0.5503770162
C -4.2191938713 -3.0247173918 -1.5549082852
O -1.9354830966 -2.6501226698 -1.0375451486
C -0.8793807896 -2.2813740636 -0.2499013659
C -0.9923869316 -1.8204723754 1.0636224392
C 0.1589219453 -1.4735348487 1.7705278208
C 1.3958549215 -1.5969961750 1.1640992394
C 1.5221595402 -2.0605873714 -0.1407561076
C 0.3798523658 -2.3989487050 -0.8488527240
O 2.5459768758 -1.3120887434 1.9145801386
C 3.1957875333 -0.1463507012 1.6696935710
C 4.3947319774 0.0539001832 2.3688951857
C 5.1457831209 1.1953544058 2.2263028020
C 4.6889613059 2.1912588855 1.3465066544
C 3.4939781314 2.0130107084 0.6379234903
C 2.7552850639 0.8509497332 0.7995800814
C 5.4442912599 3.3811262091 1.1799710232
N 6.0579853864 4.3553050162 1.0429194458
F 4.8113683260 -0.9155918863 3.2078181401
H -0.4241943307 3.3253022431 -1.8070140109
H 0.9045876392 2.1575474636 -1.7144691386
H -0.5903468302 1.7231998464 -2.5439897760
H -0.5234527907 0.6548509507 -0.2802218310
H -0.2280988996 2.2129182815 0.4731948755
H -2.5571840505 1.6038273004 0.8079748339
H -2.4707044973 3.0227398597 -0.2336218347
H -4.1767337506 1.4528952202 -1.0461894419
H -2.8648805283 1.6037254875 -2.2445813504
H -3.3970842803 -2.8683700927 0.4342775845
H -4.0858490408 -2.5690542870 -2.5398020232
H -4.0293441524 -4.0984207177 -1.6248676979
H -5.2486826002 -2.8694470097 -1.2235726367
H -1.9528288926 -1.7203913237 1.5545816255
H 0.0892084031 -1.1088540148 2.7898791325
H 2.5040686157 -2.1499113432 -0.5942297092
H 0.4470634627 -2.7604408101 -1.8694425143
H 6.0673417343 1.3100407640 2.7853653515
H 3.1447385825 2.7854413055 -0.0376566118
H 1.8314113439 0.7137506600 0.2512979831
