56
CONF127
C -4.3824952469 1.6713264395 -0.4195287777
C -3.0415997449 2.3574322788 -0.1589627017
C -3.2090789557 3.8763940387 -0.0866901418
C -2.0374943553 1.9860164352 -1.2687744137
C -1.7321823560 0.5024060275 -1.4047228131
C -1.6495555295 -0.0765439525 -2.6734619108
C -1.2743240165 -1.4025890051 -2.8334776969
C -0.9785473023 -2.1666832247 -1.7105062923
C -1.0812080631 -1.6256235093 -0.4327594297
C -1.4436320497 -0.2901984255 -0.2939365921
O -0.6061851037 -3.4811761375 -1.9544088302
C 0.2245929799 -4.0787703938 -1.0395016048
F 0.8307281745 -5.1048059095 -1.6734753634
F -0.5058158423 -4.6263500669 -0.0079655395
C -0.6826325170 2.6545351771 -1.1199870280
O -0.0590406434 3.1856905956 -2.0048227596
O -0.2037477187 2.4986598402 0.1514132115
C 1.2334737594 2.7027016488 0.2842262649
C 1.4688929291 3.0396952234 1.6846822696
N 1.6902381840 3.2865485765 2.7907281759
C 1.9503373307 1.4399340510 -0.1365606540
C 2.6014624881 1.3889555390 -1.3663055737
C 3.1643572527 0.1875128594 -1.7877867644
C 3.0830053050 -0.9483069432 -0.9942831885
C 2.4264895060 -0.8820035679 0.2341913358
C 1.8567935695 0.3075634042 0.6710744930
O 2.3196354708 -2.0683615421 0.9264229627
C 2.1148558233 -2.0529952987 2.3007771499
C 2.8787798576 -1.2514047650 3.1435925359
C 2.6690584504 -1.3279906691 4.5159188102
C 1.7210377937 -2.2035811548 5.0396446505
C 0.9799126472 -3.0110023428 4.1825865634
C 1.1695643807 -2.9372120050 2.8057888774
H -4.2790464642 0.5832282353 -0.4562670487
H -5.0991713840 1.9208254428 0.3685313943
H -4.8051427131 2.0043835744 -1.3748324871
H -2.6442222844 2.0097169640 0.8017189101
H -3.5790725276 4.2706662166 -1.0402668746
H -2.2650043211 4.3795462900 0.1458948057
H -3.9301110161 4.1468757328 0.6901770227
H -2.4302292704 2.3461139688 -2.2260693827
H -1.8620093830 0.5259639061 -3.5515012834
H -1.1945398693 -1.8533437758 -3.8162295926
H -0.8895513583 -2.2262397867 0.4486726872
H -1.4965863422 0.1326774550 0.7031096764
H 0.9702442521 -3.3979403909 -0.6087920617
H 1.5364861332 3.5448169700 -0.3479261135
H 2.6464768048 2.2716844745 -1.9941081289
H 3.6727230441 0.1354269319 -2.7446200834
H 3.5199906195 -1.8903002371 -1.3080554337
H 1.3370682968 0.3529155403 1.6221278176
H 3.6215669551 -0.5777926585 2.7302736929
H 3.2568608664 -0.7009722844 5.1780765845
H 1.5652629327 -2.2585793904 6.1114885442
H 0.2455488684 -3.7024042189 4.5825774784
H 0.6067829358 -3.5670423772 2.1247913466
