41
CONF46
O 8.5887437856 0.7155351179 -1.5914868965
N 8.1527461131 -0.1447400511 -0.8208545566
O 8.8753501539 -0.9546573977 -0.2330219612
C 6.7203322394 -0.2078568138 -0.5960317591
C 5.8858420795 0.7021614060 -1.2536912520
C 4.5238897485 0.6446220365 -1.0430360722
C 3.9809654144 -0.3241043678 -0.1718933166
C 4.8449583207 -1.2217372849 0.4833494129
C 6.2093648266 -1.1722917902 0.2742464221
N 2.6237199280 -0.4697129651 0.1251658663
N 1.8520089848 0.2825903496 -0.5650014439
C 0.5085603623 0.1972221636 -0.2861751788
C -0.3418499174 1.0049495718 -1.0705118207
C -1.7032172789 1.0078515193 -0.8894345562
C -2.3040718773 0.1899102368 0.1087151560
C -1.4368781814 -0.6237124462 0.9021866457
C -0.0803408683 -0.6188119830 0.7098208603
N -3.6459615339 0.1826769221 0.3037011987
C -4.2942108768 -0.7264026739 1.2472033695
C -4.3620785509 -0.1230836107 2.6554467320
O -5.0132966078 -1.0121692905 3.5632755976
C -4.5476372175 1.0633310118 -0.4508637757
C -4.9788504559 0.4508711275 -1.7813910817
H 6.3126175542 1.4433644074 -1.9179050775
H 3.8671813530 1.3468602001 -1.5412047523
H 4.4180417469 -1.9584813439 1.1557434721
H 6.8754455735 -1.8642909114 0.7736265324
H 0.1042680384 1.6288079871 -1.8392582146
H -2.3118369686 1.6314232284 -1.5303170635
H -1.8441100904 -1.2474899529 1.6874302525
H 0.5516603477 -1.2401973901 1.3335006907
H -5.3112045115 -0.9132821615 0.8847120163
H -3.7813886672 -1.6922010152 1.2728849636
H -4.8676456087 0.8521246635 2.6170888649
H -3.3515396387 0.0344154273 3.0453801994
H -5.9503896393 -1.0402649074 3.3315039887
H -5.4233235550 1.2401727282 0.1809294214
H -4.0684216332 2.0348478359 -0.5985788197
H -5.4906984273 -0.5024962680 -1.6188048610
H -4.1182611411 0.2753526605 -2.4330411000
H -5.6684830165 1.1288932196 -2.2927681034
