66
CONF53
C 1.9268801894 -1.4219029347 3.1089078745
C 0.7684257382 -0.8935482141 3.9220753002
O -0.1590878053 -0.2642286618 2.9970497032
C -1.2623529742 0.3029590496 3.5541494990
O -1.4606640152 0.2776188241 4.7636806675
C -2.1185966397 0.9039126236 2.5375605177
C -3.2696157643 1.5441894133 2.8942520190
N -4.0972666853 2.0269854011 1.9065407440
C -3.9593142819 1.7497078063 0.5647719673
C -2.8286332022 1.1218370491 0.1324086770
C -1.6677658492 0.8505660239 1.0843779086
C -0.5323227206 1.8472024433 0.8343793131
C -0.7805485860 3.1918942743 1.1238491091
C 0.1748305974 4.1759124839 0.9064207251
C 1.4220573457 3.8232379140 0.3904985622
C 1.6878481403 2.4968670761 0.0936805036
C 0.7259873153 1.4888541236 0.2978043989
C 1.0431230036 0.1071872515 -0.0390469545
C 1.9800601525 -0.2994259320 -0.9132044391
C 2.1720644167 -1.7341285026 -1.1727892347
O 1.5650782173 -2.6369984343 -0.6154162735
O 3.1095983425 -1.9057550138 -2.1279632796
C 3.4856622490 -3.2578757316 -2.6167634152
C 4.5447568510 -2.9453740789 -3.6667173561
C 4.0844272072 -4.0763873331 -1.4783402394
C 2.2784817044 -3.9324876313 -3.2581953376
C -2.6788004705 0.7513317066 -1.2718031635
O -3.4484355544 1.0138350101 -2.1883710578
O -1.5340081519 0.0432769021 -1.4632266538
C -1.1893772204 -0.3089015388 -2.8287366311
C -0.5124781143 0.8505130175 -3.5311648409
C -5.1267832932 2.1690098590 -0.2750784782
C -3.7704249493 1.7798738302 4.2859498071
H 1.5890777001 -2.1604505177 2.3761629260
H 2.6458479762 -1.9031046345 3.7785340777
H 2.4354144199 -0.6107364526 2.5796144208
H 1.0925795181 -0.1476704826 4.6550074878
H 0.2449546016 -1.6946821917 4.4543655088
H -4.9428918283 2.4942238803 2.1988867617
H -1.3037105334 -0.1546180710 0.8829003923
H -1.7482749674 3.4727057216 1.5295558702
H -0.0478239495 5.2114454296 1.1443193608
H 2.1848694702 4.5788416470 0.2316770339
H 2.6681212224 2.2223015520 -0.2822196699
H 0.4665983766 -0.6714620235 0.4484174857
H 2.5889817968 0.3913904676 -1.4867351253
H 5.3921780902 -2.4212449054 -3.2152682439
H 4.9054634572 -3.8788839006 -4.1071290666
H 4.1254014157 -2.3228800716 -4.4625603234
H 3.3321982769 -4.3465466879 -0.7365410897
H 4.8877176479 -3.5155453845 -0.9905364523
H 4.5118971089 -4.9937844992 -1.8946909655
H 1.5205779252 -4.1902478900 -2.5177173152
H 1.8366526972 -3.2765760765 -4.0149143806
H 2.6129520215 -4.8496716385 -3.7527015680
H -2.0901723559 -0.6349285864 -3.3558609196
H -0.5078232261 -1.1566161957 -2.7198531893
H -0.1918735649 0.5337221817 -4.5286960170
H -1.1951665318 1.6972921093 -3.6396313457
H 0.3694178342 1.1726504115 -2.9697601484
H -5.5513196813 1.3105312888 -0.7999564483
H -4.8154986390 2.8834739370 -1.0404581002
H -5.9027017952 2.6241123479 0.3450727863
H -4.6521743820 2.4253294236 4.2711243856
H -4.0368804874 0.8331360299 4.7637713220
H -2.9973960876 2.2387376108 4.9042815807
