47
CONF145
C -7.1747527462 -0.7474541852 2.1511345096
O -6.1394381125 -1.5025581472 1.4449317717
P -5.5199072799 -0.9512805102 0.0847875368
S -4.1672024137 -2.1343767016 -0.6427403956
O -6.8251071979 -0.6426828249 -0.7811438823
C -6.6929603792 -0.1071604307 -2.1292139175
O -5.0242561642 0.5755593255 0.3822563528
C -3.7481621815 0.8492244795 0.8761500304
C -3.4256465943 0.5499426650 2.1921538275
C -2.1539440007 0.8659774612 2.6630485303
C -1.2343511468 1.4970586016 1.8244451196
C -1.5853571152 1.8115086971 0.5078215677
C -2.8417891372 1.4721674423 0.0256967347
S 0.3552703103 1.9698091350 2.4946222184
C 1.5032582857 1.3177119958 1.2871646126
C 2.6905353946 2.0226428856 1.0733667799
C 3.6512608930 1.5251671858 0.1986131892
C 3.4025910007 0.3321354313 -0.4654576911
C 2.2245830348 -0.3769997889 -0.2713987357
C 1.2745981746 0.1135946422 0.6156048003
O 4.3215686144 -0.1593179758 -1.3995362426
P 5.7244416209 -0.8272231143 -0.9345613640
S 5.6479269081 -1.9485309409 0.6510886560
O 6.6663338502 0.4617853693 -0.8802477724
C 8.0224870333 0.3558307076 -0.3580107038
O 6.1958277225 -1.5107259385 -2.2994196513
C 5.6576689823 -2.8056258031 -2.6922188731
H -7.2984323501 -1.2526976911 3.1081287560
H -8.1047982142 -0.7752296278 1.5802999704
H -6.8486692536 0.2838784957 2.3083455701
H -7.7108037470 0.0067141566 -2.5001738432
H -6.1896038773 0.8626219256 -2.0991640699
H -6.1368978188 -0.8098882463 -2.7550531494
H -4.1499580464 0.0659326734 2.8387319494
H -1.8811644577 0.6177704503 3.6832908046
H -0.8755015995 2.3120913106 -0.1424534795
H -3.1292800652 1.6970331026 -0.9958524387
H 2.8659866750 2.9651946516 1.5819161889
H 4.5726591066 2.0690473759 0.0213008716
H 2.0629008245 -1.3096844406 -0.8012439940
H 0.3594985698 -0.4444841483 0.7823213018
H 8.6137211948 -0.3177030716 -0.9837659563
H 8.4299350272 1.3652467352 -0.4001682913
H 7.9974374642 -0.0022451254 0.6740101151
H 5.9128393829 -3.5583379470 -1.9423960932
H 4.5732541383 -2.7398358271 -2.8155005151
H 6.1313986103 -3.0416042307 -3.6444646827
