22
CONF241
C 2.6029439105 -0.1927551322 -0.2789049913
C 1.2070737537 -0.7742951230 -0.0816916857
C 0.0851875635 0.2558326613 -0.2921213998
C -1.3055399972 -0.3330127646 0.0073445691
C -2.4242863608 0.6101210309 -0.4069518636
O -3.7079594849 0.0583728843 -0.0989065209
O -1.4845069330 -0.5501563516 1.4134307623
O 0.1799443780 0.6381720950 -1.6716649966
O 1.1267593209 -1.3719157645 1.2247374739
O 2.9545427812 0.6769211799 0.8097079636
H 2.6702390410 0.3218951551 -1.2431292690
H 3.3303247851 -1.0101869115 -0.2600183457
H 1.0565644802 -1.5837632002 -0.8081705943
H 0.2407041148 1.1228274809 0.3695820123
H -1.4154652862 -1.2831394407 -0.5438190020
H -2.2843197823 1.5794591604 0.0991982795
H -2.4055718749 0.7700551175 -1.4875086960
H -3.6844582290 -0.1855990585 0.8363043716
H -0.7101883133 -1.0630020814 1.7018750110
H -0.1652097535 1.5338554002 -1.7654021475
H 1.5854554390 -0.7581823727 1.8218326874
H 2.5477666535 1.5384960251 0.6542764610
