78
CONF812
C -0.8234972493 -0.6953037574 -0.3446863216
C 0.0910398875 -1.8584217570 -0.6985995716
O -0.7393796163 -3.0413225577 -0.4219942970
C -1.7190264481 -2.7334503580 0.4673639720
O -2.4739396324 -3.5791752582 0.8890471061
C -1.6161900622 -1.2696831839 0.8188762723
C -2.8808560108 -0.4561123417 1.1047266202
C -3.9711004817 -0.6304170132 0.0530312361
C -4.0252026252 0.1953507367 -1.0718608117
C -5.0145405403 -0.0095762100 -2.0306344009
O -5.1716934709 0.7257117412 -3.1737955562
C -4.2350859947 1.7857840440 -3.4100939287
C -5.9640167302 -1.0254354687 -1.8757686436
O -6.9468426024 -1.2304062147 -2.8032532916
C -5.9166859495 -1.8403736538 -0.7387555740
O -6.8907246103 -2.7934809724 -0.6649822018
C -6.8701220833 -3.6600960211 0.4768389876
C -4.9223212943 -1.6387536626 0.2206526927
C -2.4678231517 1.0036394584 1.2438385270
C -3.3816469838 1.8603712812 1.8935335514
C -3.0680330647 3.1936583398 1.9747257116
C -1.8932569838 3.7044732282 1.4310996847
O -1.8302759958 5.0571560631 1.6361488409
C -3.0219509680 5.4088669289 2.3737665897
O -3.7961527886 4.1998699006 2.5476985245
C -0.9888415114 2.8976284407 0.7903984733
C -1.2835587715 1.5180670850 0.6978596601
C -0.2300040468 0.6441424310 0.0422349675
O 0.8523156302 0.4494837830 1.0019921511
C 2.0917614303 0.9170128887 0.5887672704
O 2.6188814243 -0.0050665216 -0.3807311687
C 3.8869288220 0.4316908263 -0.8608788078
C 4.3700536567 -0.5173055992 -1.9423199368
O 5.6921728806 -0.1069860686 -2.3444102862
C 6.6214250730 -0.0244830979 -1.2781998290
O 6.1747063399 0.8268007606 -0.2246147046
C 4.8985299541 0.4111873399 0.2829003631
C 4.4445855973 1.3554097502 1.3765776427
O 5.3112957893 1.3800671681 2.5109321095
C 3.0175011928 0.9778040369 1.8019307248
O 2.4919594410 1.9467303630 2.7017550021
C 7.0134095954 -1.3887292132 -0.7672390106
C 6.9588457860 -2.5929046136 -1.4163197633
C 7.5155477169 -3.6611142191 -0.6601975745
C 8.0003549900 -3.2580363910 0.5533666769
S 7.7759383590 -1.5554727376 0.7907577207
H -1.5094159512 -0.5240199736 -1.1843678085
H 0.9723156664 -1.9098978811 -0.0552611079
H 0.3818358294 -1.9075700063 -1.7484226015
H -0.9823290022 -1.2405411640 1.7210229113
H -3.2960459700 -0.7874222823 2.0633209381
H -3.3153071791 1.0055368258 -1.1831997511
H -4.2894630473 2.5378221852 -2.6147010229
H -4.5270624528 2.2319269466 -4.3608367204
H -3.2140508888 1.3936200473 -3.4811083224
H -6.8263514858 -0.5758351278 -3.5076639031
H -7.0044113796 -3.0919057377 1.4047231193
H -7.7076565027 -4.3449577093 0.3414225542
H -5.9328570151 -4.2270930410 0.5233648447
H -4.8744949759 -2.2668593624 1.1004854027
H -4.3065130617 1.4705073426 2.3065514675
H -3.6065230083 6.1307847015 1.7946270560
H -2.7373629529 5.7998637277 3.3565742150
H -0.0769222895 3.3017146731 0.3634355037
H 0.1781799895 1.1540772239 -0.8383593240
H 2.0155263814 1.9164820235 0.1224742551
H 3.8170766800 1.4546544332 -1.2660341591
H 3.7497147905 -0.4620994098 -2.8396158619
H 4.3721146817 -1.5470846314 -1.5598288030
H 7.4910201721 0.4904462708 -1.7005447305
H 4.9617822124 -0.6156901139 0.6806719018
H 4.4386802286 2.3822409888 0.9884959717
H 5.3980186843 0.4749319772 2.8441151428
H 3.0332103890 -0.0238852862 2.2645446040
H 3.1638524640 2.0883854556 3.3837221014
H 6.5308397238 -2.7057672965 -2.4054285738
H 7.5523149312 -4.6888145581 -1.0023587228
H 8.4658006415 -3.8548789464 1.3266939351
