38
CONF15
C 0.0818808615 0.7962018317 -2.8872936211
S 1.8418721274 0.4575158423 -2.9795642555
O 2.2110565937 0.2044460068 -4.3761967200
O 2.5667199793 1.4485301327 -2.1792721977
N 2.0014080808 -1.0773816413 -2.2129850244
C 2.3238964765 -1.3706978343 -0.9051926301
O 2.5335977342 -2.5188426068 -0.5544361677
C 2.2244130956 -0.2649600394 0.1100496613
C 3.3183532297 0.4296153668 0.6279902638
C 3.1648160071 1.3617977410 1.6524676201
C 1.9085199621 1.6131062388 2.1661181621
C 0.8101812895 0.9233325602 1.6491397625
C 0.9617272944 -0.0209334427 0.6328660782
O -0.4033989411 1.2437949201 2.1884938949
C -1.5206806624 0.5486233341 1.7631997396
C -1.8328215774 -0.6970298859 2.3109387850
C -2.9875349925 -1.3608089428 1.9198662651
C -3.8259792378 -0.7619085062 0.9835583136
C -3.5223759761 0.4831057293 0.4369223607
C -2.3643446322 1.1385927257 0.8321522915
C -5.0450954063 -1.5022807969 0.5130529686
F -4.7716557171 -2.2594074656 -0.5844357037
F -5.5312307693 -2.3432516200 1.4531974899
F -6.0476631816 -0.6640954695 0.1649954885
Cl -0.7656950654 -1.4188654377 3.4825589820
N 4.6410912662 0.2175830620 0.0634871695
O 4.7361292590 -0.5393822280 -0.9035371879
O 5.5940626359 0.8021453135 0.5713583070
H -0.0744681593 1.7371913896 -3.4219033489
H -0.4497755525 -0.0255077367 -3.3710751390
H -0.1973858669 0.8948464813 -1.8362230063
H 2.0280140289 -1.8596886477 -2.8627558781
H 4.0309684675 1.8901089091 2.0302938149
H 1.7608515200 2.3378999892 2.9583005066
H 0.1063996509 -0.5663357068 0.2486622615
H -3.2240676858 -2.3282955217 2.3466460272
H -4.1815254200 0.9417869086 -0.2908977765
H -2.1002615103 2.1094490628 0.4269877521
