44
CONF38
C -0.8362618968 -2.6533307508 1.6043798968
C -0.7957585829 -1.1528997651 1.8844768169
C -2.1561654782 -0.5595662466 1.5110419520
O -3.0979514054 -0.5541467863 2.2784267462
O -2.1900426644 -0.1463849697 0.2422139753
C -3.4564986314 0.4114842336 -0.2669493500
C -3.0619925834 1.3830633140 -1.3590582985
C -4.3277226451 -0.7287922458 -0.7560302959
N 0.3166645267 -0.4517302051 1.2073831938
C 0.9878551758 -1.0411802151 0.0899961892
C 0.6772888963 -0.6328413132 -1.2066314655
C 1.3454193879 -1.1896936654 -2.2902099196
C 2.3036964915 -2.1622357306 -2.0657434991
C 2.6164684327 -2.5808814980 -0.7754306560
C 1.9623683408 -2.0138548714 0.3088118428
Cl 3.8412846597 -3.7992603144 -0.5332983683
F 2.9435508777 -2.7122480705 -3.1141629085
C 0.3916816700 0.8958304082 1.4575067908
O -0.4297957876 1.4494615377 2.1945602493
C 1.5022647267 1.6738429167 0.8331293142
C 1.1884120400 2.8944340464 0.2292941272
C 2.1958315036 3.6767057341 -0.3246481028
C 3.5237671612 3.2595726759 -0.2509712955
C 3.8418378139 2.0566724275 0.3771966169
C 2.8346252099 1.2588224719 0.9101457548
H -0.9550420097 -2.8631188513 0.5380903589
H 0.0694817995 -3.1435439400 1.9667381123
H -1.6898361188 -3.0751559845 2.1410506824
H -0.6885975259 -0.9875033921 2.9605363020
H -3.9354497404 0.9358842431 0.5653943355
H -2.3997805507 2.1605051323 -0.9672665229
H -3.9602797355 1.8605797510 -1.7608160362
H -2.5533919406 0.8594046135 -2.1747803721
H -3.8245948051 -1.2693733337 -1.5642068129
H -5.2697198258 -0.3270671052 -1.1414361663
H -4.5551509356 -1.4263013324 0.0543253058
H -0.0822946282 0.1234892562 -1.3646057003
H 1.1262299829 -0.8857706743 -3.3080527594
H 2.2261146646 -2.3111374427 1.3171273989
H 0.1528439065 3.2170559312 0.1867927137
H 1.9455389175 4.6145474936 -0.8103214235
H 4.3106260357 3.8742053586 -0.6767448525
H 4.8766689661 1.7379583255 0.4520127736
H 3.0858073997 0.3244995109 1.4007333668
