39
CONF102
C 4.4852073145 -0.8699713003 -0.5560178993
C 3.1410108349 -0.4328668925 -1.1351476681
C 3.1363204838 1.0440250838 -1.5247921167
C 1.8073025829 1.5283536209 -2.1032180277
N 0.7187431117 1.4559018722 -1.1264728438
C -0.1934557747 0.4752160417 -1.1292879006
O -0.2479090579 -0.4522306606 -1.9373805011
N -1.1622460002 0.5664325398 -0.0811267862
C -1.6177247513 1.6980276256 0.6141398585
C -1.4588498951 3.0634219766 0.4096386501
C -2.1182186813 3.9142907343 1.2974695384
C -2.9174663980 3.4172390126 2.3338866283
C -3.0978546627 2.0485174785 2.5118987468
C -2.4435001146 1.1856000986 1.6367777374
N -2.5066415573 -0.2013092039 1.5772415178
C -1.7543247310 -0.5331266570 0.5625261408
N -1.4958017086 -1.7951805969 0.0898997053
C -1.8063301801 -2.9826895980 0.7241162872
O -2.3134535986 -3.1102875299 1.8180200484
O -1.4388922808 -3.9982595771 -0.0857973930
C -1.6842002581 -5.3216755133 0.4491796806
H 4.7278469117 -0.2952100516 0.3447030532
H 5.2925475241 -0.7129974759 -1.2798992712
H 4.4761471336 -1.9304771187 -0.2859667321
H 2.3481036368 -0.6220302563 -0.4000621621
H 2.9000495768 -1.0394552368 -2.0174656915
H 3.3948647171 1.6591486696 -0.6521349951
H 3.9113994879 1.2296192913 -2.2794885594
H 1.5160280245 0.9245946684 -2.9665107288
H 1.8938611760 2.5707055135 -2.4279505958
H 0.7840042738 2.0585832524 -0.3181288017
H -0.8711361106 3.4722240334 -0.4040800147
H -2.0107224733 4.9864874367 1.1711481684
H -3.4141526256 4.1131185062 3.0023263656
H -3.7345836133 1.6571921770 3.2986150957
H -1.0377563005 -1.8370234291 -0.8173611651
H -1.3348509111 -6.0074641435 -0.3212477535
H -2.7517771921 -5.4618368606 0.6333726297
H -1.1215861140 -5.4646090079 1.3745781627
