31
CONF1
C -3.8883551443 -0.0860788984 0.8214899070
C -3.1086275440 -0.0689057183 -0.4961502901
C -3.7145866287 0.9120436610 -1.4992029388
O -3.0538136838 -1.3880978637 -1.0655445130
C -1.6658480834 0.3609334330 -0.1816391097
O -1.4186593862 1.5066139010 0.1747417440
N -0.7305952063 -0.6332767426 -0.3116841789
C 0.6416389551 -0.5707860082 -0.1091862287
C 1.2865077803 0.5562962463 0.4245014628
C 2.6657225756 0.5760475455 0.5789582729
C 3.4057277282 -0.5571825734 0.2122913668
C 2.7672150289 -1.6983984967 -0.2648219700
C 1.3986697335 -1.7045628691 -0.4374159909
N 4.8661481005 -0.5998491702 0.2579608983
O 5.4812143024 0.4281529795 -0.0094872008
O 5.3952112712 -1.6761483529 0.5241712077
C 3.2689123354 1.8087827197 1.2211635191
F 2.3281343490 2.5149692958 1.8916010353
F 3.8070593597 2.6589411760 0.3181131520
F 4.2256473963 1.4999803792 2.1258683981
H -4.9238371624 -0.3814848774 0.6217860152
H -3.4433108111 -0.7983891421 1.5226565299
H -3.8912046749 0.9082639813 1.2744725835
H -3.1400373441 0.9094507830 -2.4299871892
H -3.7266452573 1.9243724300 -1.0896192064
H -4.7431237144 0.6075897665 -1.7158692192
H -3.9510547787 -1.7449095423 -1.0805644374
H -1.1031730330 -1.5177987695 -0.6383740372
H 0.6967535625 1.4057939032 0.7301816335
H 3.3585814497 -2.5650724962 -0.5335888982
H 0.9097290268 -2.5872905743 -0.8368220214
