43
CONF15
C 0.3759641752 0.5380826396 2.5473608276
C -0.5479422505 1.3960195211 1.6848510739
C -0.4718392572 2.8679272449 2.0907785999
C -0.1973189737 1.2732104823 0.1834351119
C -0.2900221518 -0.1283719326 -0.3551939200
C 0.8612214516 -0.8363216082 -0.7487722447
C 0.7203686840 -2.1620486984 -1.1729378625
N -0.4476992375 -2.7849039764 -1.2586361865
C -1.5437134361 -2.1174445344 -0.9098715145
C -1.5198866257 -0.8034457228 -0.4386608477
C -2.7948623480 -0.1611187852 0.0271571842
O -3.4358252519 -0.5688808069 0.9722890617
O -3.1127663318 0.8959525672 -0.7204305017
C -4.3118942812 1.6140432275 -0.3122439217
C -2.8145224998 -2.9162367939 -1.0983351271
F -3.8419566592 -2.1053878299 -1.5199327779
F -3.2100969362 -3.4753250953 0.0964670861
C 1.9246183156 -3.0252017041 -1.5308005124
F 1.5715196052 -4.1158394935 -2.2305440008
F 2.8358174027 -2.3548430143 -2.2702639754
F 2.5557355326 -3.4544665979 -0.4091239241
C 2.1888738144 -0.1732553554 -0.7210070179
N 3.0360344197 -0.3383877004 0.2094809402
C 4.2135734986 0.5206144556 0.0346091844
C 4.3416660311 0.9453978377 -1.4375314934
S 2.6108390973 0.9339594556 -2.0719278110
H 1.4165365367 0.8617400929 2.4294148393
H 0.1058569745 0.6308470177 3.6039319044
H 0.3196477066 -0.5215047977 2.2753439061
H -1.5795362316 1.0560192238 1.8380868790
H -0.7391455594 2.9893468640 3.1451548211
H -1.1518989180 3.4810059526 1.4902531661
H 0.5464048052 3.2503788568 1.9525759185
H 0.8182139077 1.6523022713 0.0437302347
H -0.8665800839 1.9204985530 -0.3924510602
H -4.4015539401 2.4397293923 -1.0156228560
H -5.1777191889 0.9516041827 -0.3744567736
H -4.1897619350 1.9815718229 0.7090189708
H -2.6787155723 -3.7208000150 -1.8269299350
H 4.0770488513 1.3952999410 0.6862050453
H 5.1138714784 -0.0055779601 0.3658001468
H 4.9243350166 0.2293624117 -2.0232693643
H 4.7671103541 1.9444479106 -1.5470010038
