45
CONF147
C 7.7523453660 0.4162368190 0.7818328545
C 6.2963097296 0.8620431504 0.9040742921
C 5.3995735715 0.2496046768 -0.1714416009
C 3.9396973578 0.6859549133 -0.0596311325
C 3.0423975240 0.0683738323 -1.1312275260
C 1.5853231833 0.5115531939 -1.0130407823
C 0.6821491572 -0.1237603849 -2.0666745656
C -0.7925990374 0.3082742229 -1.9511190034
C -1.4556186210 -0.1245758989 -0.6655775940
C -1.8907097504 -1.4576460863 -0.5806075849
N -2.4802027306 -1.8283668604 0.5899680411
C -2.6545735579 -0.9497307385 1.6492279200
N -3.2732955114 -1.6115987206 2.6444191607
C -3.4390362340 -2.8506359234 2.1319266561
N -2.9842309321 -3.0588348806 0.8934064078
N -2.2483450079 0.3123398783 1.5963447625
C -1.6536900512 0.7108089993 0.4581716483
C -1.2284050448 2.1604007948 0.4719891969
C -0.3457677786 2.5121499300 1.6741930296
N -1.7635363486 -2.4043717421 -1.5255030910
H 8.1677237574 0.7028506759 -0.1908289503
H 7.8357565583 -0.6727207291 0.8711119729
H 8.3774852532 0.8658431037 1.5598735251
H 6.2383463342 1.9568324127 0.8405224703
H 5.9079777602 0.5891504788 1.8943496161
H 5.4574188868 -0.8464851772 -0.1090293067
H 5.7864101678 0.5228523950 -1.1635438188
H 3.8811678238 1.7817363927 -0.1252315759
H 3.5542850045 0.4152142003 0.9336400627
H 3.0950180986 -1.0273651040 -1.0616509957
H 3.4260890132 0.3346842009 -2.1261990186
H 1.5299433731 1.6061364633 -1.0958757492
H 1.2129826672 0.2553623779 -0.0118923626
H 1.0420107329 0.1443059989 -3.0682338379
H 0.7575657024 -1.2165276551 -1.9895738762
H -0.8581308681 1.3924231284 -2.0614779439
H -1.3564227180 -0.0968612975 -2.8014913334
H -3.9150097907 -3.6548165781 2.6809127357
H -2.1418830396 2.7688443498 0.5062384270
H -0.8678465742 2.3216965584 2.6142512128
H -0.0710701330 3.5704259007 1.6384647522
H -1.4561140131 -2.1594194246 -2.4509769490
H -2.2399349362 -3.2845364607 -1.4023102874
H -0.7071521935 2.4248070866 -0.4471559110
H 0.5753161355 1.9205281896 1.6677702020
