54
CONF1
C -4.9577957083 -1.9844201145 1.5328960035
C -3.9893166101 -2.4352602114 2.6249913239
C -3.3657833078 -1.2082693107 3.3751704092
N -2.3166063555 -0.7101423490 2.5008719132
C -1.4795258185 -1.7301124460 1.8583243269
S -2.4839437881 -3.2748702677 1.8649383326
C -1.4438174201 -0.8230748673 0.5763454066
C -2.3170087577 0.1354266212 1.4118962580
O -2.8861269548 1.1910405470 1.2100166128
N -0.2146796717 -0.3633038499 0.0139756739
C 0.6449492389 0.3966551314 0.7417443019
O 0.4468814635 0.6909873264 1.9097412642
C 1.8770660558 0.9557228265 0.0108570641
C 1.5441416729 2.3616510615 -0.4858998245
C 1.9912724121 3.4644796974 0.2405913993
C 1.6654035519 4.7519904760 -0.1718011284
C 0.8938840031 4.9467729778 -1.3128866455
C 0.4453165421 3.8476288046 -2.0388936305
C 0.7656614112 2.5585116233 -1.6275562711
C 2.4074818645 0.1400229866 -1.1462798766
O 1.7490117159 -0.4869145492 -1.9463995825
O 3.7589065485 0.2450958912 -1.1984532783
C 4.4120190375 -0.3209677763 -2.3091289872
C 4.2703872245 0.2604867538 -3.5591928938
C 4.9822189937 -0.2775646542 -4.6255898681
C 5.8191012675 -1.3738570805 -4.4313813348
C 5.9468099885 -1.9366707220 -3.1653571573
C 5.2378490778 -1.4101119933 -2.0891047984
C -4.4520066621 -0.2235861793 3.8428640843
O -5.1763958647 -0.5700920702 4.7460202769
O -4.5952470301 0.9570545950 3.2477799424
C -4.6528627773 -3.4196361701 3.5796377862
H -4.5033486171 -1.2557364849 0.8554212201
H -5.8470253644 -1.5278766546 1.9836113924
H -5.2764492113 -2.8424506614 0.9361923141
H -2.8949494702 -1.5767040045 4.2939815402
H -0.5100190334 -1.8913736307 2.3364901135
H -2.0587837959 -1.2677126934 -0.2116250505
H 0.0523645187 -0.6155510398 -0.9302872553
H 2.6584404510 1.0385499941 0.7681736090
H 2.5849882543 3.3125900834 1.1361577151
H 2.0143278665 5.6039648906 0.4024796133
H 0.6394495829 5.9515890273 -1.6334163631
H -0.1610991844 3.9920028972 -2.9270688571
H 0.4090391701 1.7063690250 -2.1976071149
H 3.6155218472 1.1154921613 -3.6880846125
H 4.8832670893 0.1644413772 -5.6113905279
H 6.3730552662 -1.7875037332 -5.2671601579
H 6.5998156067 -2.7890118453 -3.0102187293
H 5.3213416686 -1.8299087841 -1.0928536354
H -3.9552424533 1.1325584095 2.5071721295
H -3.9603556882 -3.7402120115 4.3618256532
H -4.9949306430 -4.3041555343 3.0340934965
H -5.5166539125 -2.9440344803 4.0516609134
