38
CONF7
C 2.7212247982 -2.1353458202 1.3154071600
C 3.4259506197 -0.8168744470 0.9786629937
C 4.3082417349 -0.3611595119 2.1369762141
N 2.4946933164 0.2765603501 0.6381991816
C 1.6442093276 0.0142484811 -0.5282343922
C 1.1252851230 1.3365469192 -1.0899364647
O 2.2144147782 2.2220977465 -1.3729034269
C 0.1799120168 2.0620195040 -0.1236445588
O -0.8708890044 1.2158223371 0.3703725963
C -1.9078248125 0.8937540899 -0.4611936134
C -2.1602393407 1.4616172442 -1.7048721359
C -3.2837715771 1.0606021935 -2.4574029507
C -4.1735318079 0.0995452534 -2.0054910341
C -3.9050042788 -0.4634113608 -0.7536456688
N -4.5856648421 -1.4250033057 -0.0454978995
C -3.9393839198 -1.6664563659 1.1470482009
C -2.8276589530 -0.8649391894 1.2346242251
C -2.7857329553 -0.0894894439 0.0330473039
H 2.0684145003 -2.0014039407 2.1869136892
H 2.1118312353 -2.4925938252 0.4798729236
H 3.4539485183 -2.9132573197 1.5548705287
H 4.0585927383 -0.9728733404 0.0930710672
H 3.6977291971 -0.1732625845 3.0286181670
H 4.8419051261 0.5598327090 1.8837083329
H 5.0417180308 -1.1330939188 2.3882914845
H 1.9056272769 0.4487043136 1.4499300008
H 2.2608923489 -0.4612365976 -1.3010965458
H 0.7920792976 -0.6543053261 -0.3281034655
H 0.6166989027 1.1400670719 -2.0399088374
H 2.8322341440 2.0810052991 -0.6334305100
H 0.7374075990 2.3666128832 0.7673116111
H -0.2272103568 2.9653411758 -0.5930157969
H -1.5027598517 2.2171679719 -2.1170098725
H -3.4476097234 1.5258448916 -3.4245616432
H -5.0338685465 -0.2032464523 -2.5926181156
H -5.4265376767 -1.8869499931 -0.3528009659
H -4.3278691300 -2.3970203457 1.8423499284
H -2.1274539383 -0.8354668539 2.0557611868
