44
CONF76
C -5.3489588882 -0.7465234192 1.1331706462
C -4.0051383028 -0.0295090466 1.1089510362
C -3.4320282843 0.1795893982 -0.3430734452
N -1.9877389521 0.1996934755 -0.1874586345
C -1.4048282938 -0.1612169388 1.1151774334
S -2.7234034339 -1.0892529153 1.9811720664
C -0.2828537157 -0.9232610701 0.3428440062
C -0.9800723310 -0.3875968537 -0.9331274049
O -0.7924933964 -0.4724585678 -2.1230646916
N 1.1018792155 -0.6356031545 0.5766128274
C 1.6352351566 0.5696047234 0.3113964797
O 0.9382065765 1.5204128621 -0.0809507647
C 3.1459803129 0.6742013070 0.4681121215
C 3.8220881364 0.1357262726 -0.7911059853
C 4.8501635918 -0.8003284290 -0.6741306555
C 5.4876265163 -1.2838821329 -1.8138583026
C 5.1008888850 -0.8373424289 -3.0748013404
C 4.0737677886 0.0966627814 -3.1931205256
C 3.4360621868 0.5845160452 -2.0566780823
C 3.6719420550 2.0954147306 0.7260251934
O 4.7614120931 2.2700853544 1.2276647567
O 2.9096437295 3.1091110336 0.3242639906
C -3.9237151531 -0.8854857783 -1.3174955315
O -4.8536607437 -0.6983272000 -2.0704934447
O -3.2606586595 -2.0463694705 -1.2116504046
C -4.1117358393 1.3349245664 1.7931128960
H -5.2901120090 -1.7521845967 0.7079639221
H -5.7043291074 -0.8261756294 2.1640093046
H -6.0830723904 -0.1648919555 0.5659610367
H -3.8164205067 1.1330688362 -0.7208090160
H -1.0521764712 0.6955150718 1.6957698219
H -0.4400843506 -2.0037724162 0.3997080855
H 1.7070671119 -1.3852034720 0.8791756115
H 3.4702373098 0.0690967220 1.3188188712
H 5.1516729417 -1.1489339835 0.3090744107
H 6.2863824868 -2.0120623500 -1.7140227434
H 5.5972247826 -1.2160614832 -3.9625598744
H 3.7663825735 0.4481147877 -4.1728894604
H 2.6362232452 1.3123441948 -2.1586158988
H 2.0297288197 2.7290813905 0.0275246178
H -3.6394551687 -2.6760261565 -1.8500380121
H -4.8687541090 1.9385345635 1.2798347204
H -3.1640292099 1.8798245266 1.7669246532
H -4.4140954733 1.2069478105 2.8351532121
