31
CONF9
C 5.5677505741 -0.1234139428 -1.7090798725
C 4.3773745710 0.1234069375 -0.8347825461
N 3.4741110271 -0.8395160658 -0.7357063691
C 2.4166614560 -0.6058560822 0.0478395594
N 1.3741363081 -1.3891167673 0.3273208257
C 0.6537716152 -0.6205361617 1.1642514463
N 1.1152355310 0.5986940816 1.4600835590
N 2.2582898448 0.6076933548 0.7425854113
C 3.1752979339 1.5996184160 0.6540945490
C 4.2562641744 1.3654446352 -0.1459181594
S -0.9661161885 -1.1506119725 1.7604748824
O -0.9363402686 -2.5989728549 1.9005100899
O -1.3808472886 -0.2311428563 2.8098656896
N -1.9655018272 -0.8350431180 0.3879797946
C -2.1757569694 0.5260145601 0.0647591383
C -1.4166980096 1.2039568405 -0.8919838318
C -1.6263969606 2.5275112261 -1.2286254569
C -2.6294618948 3.2244204536 -0.5614413806
C -3.4115033127 2.6000411434 0.4037733143
C -3.1815314286 1.2657551186 0.6957027653
F -3.9583342848 0.6548650085 1.5946049124
F -0.4406090167 0.5106294765 -1.5212681030
H 5.5074700748 -1.1173006867 -2.1517348249
H 6.4932287475 -0.0416822707 -1.1287575256
H 5.6199404995 0.6250946725 -2.5072816026
H 2.9857272061 2.5024789590 1.2225867949
H 5.0196388112 2.1265515150 -0.2515309203
H -1.0086903141 2.9914787846 -1.9881841771
H -2.8073330899 4.2665540831 -0.8020593069
H -4.2032289262 3.1236218301 0.9259309165
H -1.6245430254 -1.3927769818 -0.3923211833
