50
CONF5
C 4.2101097359 -3.1724727139 -0.3711017738
C 3.0186640011 -2.5937348490 0.3378383148
O 3.0238334494 -2.1157803277 1.4450496823
O 1.9161293233 -2.6807084313 -0.4602933063
C 0.6950403527 -2.0831993680 0.0281373567
C -0.4295967774 -3.0845671029 -0.0556171393
C -1.6837109386 -2.6714274250 0.1577877506
C -1.8401654827 -1.2177717697 0.4808993488
C -3.2326824316 -0.5875506981 0.6154582152
C -3.1102066176 0.8880985340 1.1593385436
C -1.7820506150 1.5690091044 0.8902630166
C -0.8670613414 0.9362754460 0.0699028397
C -1.0803143718 -0.3847178791 -0.5781964714
C 0.3665151660 -0.8581674257 -0.8308015385
O 1.2490623072 0.2759563450 -0.5310016618
C 0.4820137813 1.2437686516 0.0502054177
C 0.9266165585 2.3828248504 0.7042196757
C -0.0030596764 3.1269168672 1.4308898838
C -1.3295958858 2.7146957231 1.5597762884
O 2.2732385435 2.7200429526 0.7787115841
C 2.9468720605 2.8965224144 -0.4121850378
O 2.4126026430 2.8896588136 -1.4876166731
C 4.4089042615 3.0854844184 -0.1378140488
C -1.8692451270 -0.3496813679 -1.8972739166
C -3.3108019151 0.0917636133 -1.7052693579
N -3.9436297595 -0.7146320658 -0.6625970118
C -5.3678615956 -0.4305745150 -0.5564206725
H 5.0450420807 -3.2468612950 0.3240826620
H 3.9692184707 -4.1522943570 -0.7902953496
H 4.4822008332 -2.5174123786 -1.2045408800
H 0.8606178926 -1.7538310221 1.0638819811
H -0.1714721769 -4.1126736457 -0.2878451922
H -2.5381783026 -3.3385295096 0.0962878182
H -1.3275847818 -1.0404253129 1.4399011588
H -3.8094290365 -1.1621334754 1.3512711214
H -3.2578242782 0.8726187881 2.2458522397
H -3.9424535673 1.4807396877 0.7601280677
H 0.5400885123 -1.1105908288 -1.8810424904
H 0.3514743545 4.0100750958 1.9521024714
H -1.9968902532 3.2686098728 2.2133249164
H 4.9172099199 3.3650028832 -1.0593322575
H 4.8233026024 2.1481177825 0.2460343532
H 4.5586263613 3.8472392534 0.6312578396
H -1.3595617083 0.3215130597 -2.5978771665
H -1.8573167211 -1.3600494557 -2.3245718278
H -3.3498404236 1.1753711283 -1.4752352511
H -3.8667492599 -0.0517666075 -2.6394345816
H -5.8139246248 -1.0556057398 0.2246777174
H -5.6012444055 0.6266197758 -0.3257377087
H -5.8565147927 -0.6743683328 -1.5060386558
