70
CONF222
C -3.0242932301 -0.0988282082 -0.0370338806
C -4.2973793019 0.7582929285 0.1699977694
C -5.2274251052 0.0617503484 1.1093752703
C -6.5873357577 0.0711419037 1.3063607334
N -6.9068511871 -0.8160297652 2.3298637536
C -5.7588766808 -1.4161950810 2.7940135005
C -5.4982153002 -2.3770360278 3.7745198418
C -4.1670049547 -2.7520830456 3.9409922151
C -3.1125795702 -2.2049877178 3.1737019234
C -3.3698541520 -1.2409853284 2.2045908160
C -4.7019600843 -0.8704272950 2.0375923869
C -2.3737119093 -0.5196507986 1.3189191897
C -1.1045775558 -1.3413366468 1.0992066601
C -0.1380696183 -0.5988471786 0.1788435104
C -0.8626028792 -0.2351314421 -1.1168698557
N -2.0153714664 0.6298924108 -0.8374776110
C -2.5479525746 1.1342993948 -2.1183647435
C -1.5438701755 1.9793567674 -2.8432937089
C -1.2304736813 1.8461479008 -4.1300656952
C 1.0675670098 -1.4579530943 -0.1556994047
O 0.9448904489 -2.5022819918 -0.8024475835
N 2.3006649581 -0.9955212599 0.2148527189
C 3.4973590199 -1.7781051543 -0.1645533784
C 3.8997380702 -1.6708246694 -1.6383735376
C 4.6923267399 -0.4244627266 -2.0261527535
N 3.9702344164 0.8501594280 -1.8744845652
C 2.8209683611 0.9477111288 -2.7799518220
C 4.8882777776 1.9725662000 -2.1052339658
C 2.4542775369 0.0163794589 1.2477039927
O 1.9687901684 -0.1435092352 2.3679594207
N 3.1731329571 1.0600988654 0.8323946546
C 3.6389425687 2.0960122278 1.7479552805
C 4.9508487119 1.7116148800 2.4285961168
H -3.3248350709 -1.0312557158 -0.5609212984
H -3.9923181646 1.7386645089 0.5651199416
H -4.8012040530 0.9361274089 -0.7832544805
H -7.3702413233 0.6281898502 0.8101114376
H -7.8407113738 -0.9950319362 2.6616638102
H -6.2860156958 -2.8175494596 4.3772482532
H -3.9266621730 -3.4998090506 4.6911654554
H -2.1021896616 -2.5534369602 3.3619395349
H -2.0901881126 0.4185044302 1.8240479113
H -0.6187385389 -1.5489182465 2.0578078141
H -1.3676999441 -2.3040750452 0.6419218410
H 0.1712637003 0.3329185087 0.6617482366
H -0.1799871892 0.3047298608 -1.7806604654
H -1.1700077352 -1.1620734265 -1.6376103330
H -2.8968741323 0.3130737040 -2.7743136254
H -3.4103020881 1.7744058741 -1.9067840375
H -1.0846271749 2.7709850154 -2.2498431297
H -1.6686229485 1.0582034028 -4.7387489541
H -0.5309303523 2.5207104829 -4.6147618598
H 3.2899149446 -2.8267664950 0.0736941224
H 4.3205734682 -1.4450447735 0.4760276457
H 4.5505180454 -2.5275333194 -1.8514753540
H 3.0177832467 -1.8004720884 -2.2721732960
H 5.0442596955 -0.5392426959 -3.0691677670
H 5.5861117558 -0.3661777189 -1.3907972265
H 2.3122131827 1.9036371949 -2.6186458784
H 2.1060744875 0.1460749238 -2.5792293891
H 3.1251019229 0.8870293639 -3.8401963483
H 5.3109912388 1.9589623369 -3.1253446407
H 4.3543802695 2.9178011396 -1.9641498225
H 5.7137003456 1.9260697316 -1.3869979532
H 3.4936074237 1.0456925420 -0.1645275243
H 3.7674204846 3.0132834884 1.1643811836
H 2.8599173775 2.2804455106 2.4944511071
H 5.7354558801 1.5413122761 1.6846999654
H 4.8256132100 0.7972359775 3.0166782246
H 5.2776399788 2.5121019212 3.0994603434
