33
CONF5
N 2.5846971304 2.5148132041 -0.4386491218
C 2.5189562086 1.2011364755 -0.0519316063
N 1.3492340913 0.5997629403 -0.0255855046
C 1.4034937238 -0.6712171693 0.4392113058
C 2.5179637426 -1.3914009408 0.8629058080
N 2.1633956183 -2.6663312813 1.2479480801
C 0.8728977107 -2.7189999697 1.0553280525
N 0.3386740389 -1.5306438900 0.5705790933
C -1.0522101782 -1.2765073079 0.2549034724
O -1.1608347257 -0.8804079181 -1.0982288991
C -2.2684462017 0.0566316441 -1.2490037422
C -1.7350028938 1.3153351129 -1.9132282234
O -0.8400392736 2.0383098663 -1.0828103637
C -2.8538443775 0.2621705262 0.1518234349
O -3.9493486818 -0.6352332847 0.3032845445
C -1.6958227361 -0.1392990317 1.0678180926
O -2.1877711858 -0.5646031434 2.3305374992
C 3.8051452422 -0.7609475152 0.8424453717
O 4.9028638578 -1.1679383655 1.1638590390
N 3.6730644598 0.5888494015 0.3433971099
H 3.4407788486 2.8402774298 -0.8585940562
H 1.7424877293 2.8581354963 -0.8802247183
H 0.2364536809 -3.5752590776 1.2404676733
H -1.5982035303 -2.2116838518 0.4558317197
H -3.0295288185 -0.4080916462 -1.8893145833
H -1.2612895380 1.0267087975 -2.8648747507
H -2.5774088193 1.9788326171 -2.1434083351
H -0.1216424679 1.4261343171 -0.8093267168
H -3.1602241569 1.3042747505 0.3158403785
H -4.1232650147 -0.7152719373 1.2505311413
H -0.9984078092 0.7007934599 1.1617377118
H -1.4782599930 -0.5054315598 2.9781395728
H 4.5414444298 1.1071016445 0.3500185298
