26
CONF53
C -2.8091694356 0.1768738483 -0.3756000020
C -1.6007742642 0.3240547254 0.5435977877
C -0.2941643252 -0.0854733710 -0.1440607177
C 0.9050647132 -0.0848708968 0.8275639361
C 2.2887090011 -0.3419669915 0.2055266770
C 2.5378663521 -1.6689590733 -0.4934089014
O 1.8769572431 -1.7706570486 -1.7684142341
O 2.6220263047 0.6816662183 -0.7379924729
O 1.0771449950 1.1898510738 1.4699491026
O -0.5304176260 -1.4013518566 -0.6364338660
O -1.4837343269 1.7036046783 0.9336767316
O -3.9719885574 0.7397097212 0.2548134700
H -2.6434113375 0.7572416670 -1.2899773467
H -2.9689677153 -0.8722212387 -0.6402353880
H -1.7467052324 -0.3062907769 1.4379418131
H -0.1015181515 0.6240448652 -0.9661900631
H 0.7193055400 -0.8728288749 1.5775198027
H 2.9889034016 -0.3094914217 1.0581507157
H 2.1742888042 -2.4967493059 0.1217579300
H 3.6192210283 -1.7875696035 -0.6373067190
H 2.3453518212 1.5180835815 -0.3350495791
H 0.1993535980 1.6050180654 1.5501394203
H 0.2338665803 -1.6289655970 -1.2072806942
H -2.3538062046 1.9719766459 1.2640651556
H 2.1201272060 -0.9783923997 -2.2699992037
H -4.2839418493 0.1074875708 0.9149360046
