39
CONF7
C -1.6061173460 1.2721410050 2.9891226613
O -2.4546241782 0.7660493075 1.9491748163
C -1.8548769996 0.1072086224 0.9207589824
C -0.4791449376 -0.1080367414 0.8141505147
C 0.0302188559 -0.8022138776 -0.2834515384
C -0.8228419504 -1.2744363594 -1.2805413831
C -2.2020724404 -1.0578734796 -1.1762620173
C -2.7226924156 -0.3583311932 -0.0796618010
O -4.0703115341 -0.0946958306 -0.0029931881
C -4.8034327033 -1.1215319839 0.6975083053
O -3.1190409918 -1.4743895190 -2.0911245504
C -2.6311526610 -2.1834640605 -3.2385727488
C 1.5265775256 -1.0443858821 -0.3905636656
C 2.3609587843 0.1722919593 -0.1059008809
C 3.2340225187 0.2452424267 0.9607462344
N 4.0069274284 1.3059328536 1.2486453011
C 3.8784390962 2.3448210538 0.4031407269
N 3.0661921983 2.4095193238 -0.6659510209
C 2.3085209502 1.3326487856 -0.9202779416
N 1.5173662451 1.3782373736 -2.0261836671
N 4.6094837689 3.4696383836 0.6849728967
H -2.2736914405 1.7574996828 3.7015112073
H -1.0645324839 0.4587047828 3.4854343875
H -0.8931834718 2.0044831710 2.5929619862
H 0.2032470397 0.2600812243 1.5707550430
H -0.4074508784 -1.8097133621 -2.1264653990
H -4.7031105405 -2.0840049548 0.1824314739
H -4.4441062455 -1.2134423321 1.7290900164
H -5.8498923877 -0.8104520258 0.6977728581
H -2.1270980041 -3.1109492263 -2.9433676125
H -3.5135621144 -2.4188872438 -3.8340076549
H -1.9465015384 -1.5592864161 -3.8242467321
H 1.7487187966 -1.4304743885 -1.3937802972
H 1.8147723435 -1.8319642714 0.3167874748
H 3.3236635516 -0.6104102088 1.6313560183
H 0.7409773932 0.7371122026 -2.0932915778
H 1.3847792599 2.2811180715 -2.4565335187
H 4.7348162273 4.1251753444 -0.0706091739
H 5.4034712707 3.3449224614 1.2936143347
