57
CONF94
C -4.2009999350 0.5396688097 -3.4008223841
C -3.0826245642 -0.4488980409 -3.0470818315
C -2.0547653185 0.1251182963 -2.1024094451
C -1.8179448129 -0.3649100573 -0.8585421702
C -2.6624479869 -1.4174669598 -0.2364103704
C -4.0487713873 -1.2651606561 -0.1071097363
C -4.8210406612 -2.2508601689 0.5016650240
C -4.2206342073 -3.4080284456 0.9930210186
C -2.8396233344 -3.5668473084 0.8811278392
C -2.0681626108 -2.5764563161 0.2826937010
C -0.6710774805 0.0794126649 -0.0283189122
C 0.6271484589 0.1517084771 -0.5416653187
C 1.7044765651 0.5650746846 0.2368289192
C 1.4913725375 0.9250951296 1.5713721445
C 0.2018068699 0.8356193849 2.1103156772
C -0.8553562499 0.4102929309 1.3224926421
O 2.4499804506 1.3938449720 2.4211989855
C 3.8350688735 1.2909138572 2.0421395903
C 4.3657510512 -0.1335894619 2.1079101391
N 4.1904301419 -0.7744001760 3.4133163419
C 4.5233803108 -2.1972491368 3.3073444714
C 5.0258068562 -0.1486107866 4.4408835713
C -1.3090738977 1.2966458245 -2.6294232209
C -1.2803020935 2.4979342806 -1.9071508268
C -0.6144280777 3.6139275804 -2.4015556334
C 0.0395054455 3.5522673756 -3.6316083504
C 0.0084629692 2.3682092700 -4.3655068127
C -0.6684254414 1.2549975989 -3.8746728135
H -4.7531292744 0.8439146489 -2.5057941722
H -4.9073877326 0.0841797152 -4.1014544490
H -3.7935265077 1.4422880477 -3.8671059891
H -3.5083975257 -1.3642259040 -2.6295371862
H -2.5690607438 -0.7359186040 -3.9748803453
H -4.5192104243 -0.3576973812 -0.4727591220
H -5.8934673678 -2.1105600946 0.5985069134
H -4.8223896577 -4.1771243387 1.4671909120
H -2.3624561208 -4.4639097265 1.2642516735
H -0.9914205307 -2.6992421616 0.2060590988
H 0.8040948487 -0.1255281640 -1.5760965557
H 2.6915469704 0.5973138448 -0.2081521614
H 0.0482973557 1.1072481823 3.1500594365
H -1.8489763395 0.3452255428 1.7572345043
H 3.9950282628 1.6976116751 1.0363122724
H 4.3544852607 1.9447260974 2.7460128676
H 5.4334181103 -0.0928467791 1.8067323476
H 3.8491733090 -0.7485308982 1.3621511290
H 3.8768406796 -2.6763039404 2.5646481440
H 4.3619369676 -2.6860876159 4.2735781900
H 5.5763444437 -2.3646359195 3.0088793899
H 4.7334451486 0.8932173313 4.5996082194
H 6.1014634626 -0.1722302764 4.1791474790
H 4.8922323922 -0.6800029123 5.3882838532
H -1.7889399767 2.5473440320 -0.9490957147
H -0.6086992501 4.5358204230 -1.8275225165
H 0.5630740543 4.4214477561 -4.0174369862
H 0.5141251148 2.3097107355 -5.3247776060
H -0.6759592049 0.3365436487 -4.4540763892
