52
CONF145
C -0.2560473707 -1.9089024098 1.0216232181
C -1.4230340982 -1.2976745500 1.7397071798
C -2.4888374334 -0.7787130167 1.1115038306
C -2.6949138497 -0.8038055427 -0.3531501076
C -2.2644608021 0.3827044852 -1.2680604575
C -3.7316549854 0.0200185695 -1.0454825945
C -4.6356924598 0.9383552239 -0.2565950550
C -4.4083798352 -0.6006935358 -2.2506455443
C -1.6027004330 1.5371106034 -0.6537476771
O -1.8510260092 2.0530475950 0.4196509230
O -0.5872120654 1.9728518442 -1.4585184405
C 0.2491956930 3.0105553714 -0.8932513532
C 1.1686948098 2.4740033963 0.1735669503
C 1.7402962860 1.2098295043 0.0280684578
C 2.6186924384 0.7410072090 1.0007187576
C 2.9290329088 1.5078342573 2.1210860769
C 2.3475357161 2.7632219531 2.2596660040
C 1.4715925547 3.2500835810 1.2925359870
O 3.1733759478 -0.5246327096 0.9503823110
C 3.4442396030 -1.1011694615 -0.2809484150
C 4.0935237673 -0.3945710248 -1.2912352615
C 4.4064141143 -1.0493234492 -2.4784651182
C 4.0847811597 -2.3949398576 -2.6525286789
C 3.4481296078 -3.0892598393 -1.6266193376
C 3.1213797370 -2.4449908858 -0.4357767299
C -1.3122683604 -1.2833667885 3.2366337517
H -0.1855764929 -2.9830219617 1.2385917997
H -0.3048863413 -1.7750309518 -0.0611555512
H 0.6784086005 -1.4590476838 1.3780100096
H -3.2704903079 -0.3241236105 1.7159892452
H -2.4691621149 -1.7538150776 -0.8335083379
H -1.8500537882 0.0946333820 -2.2282458018
H -5.0260454279 1.7254145770 -0.9110175393
H -4.1266114477 1.4138690144 0.5805822707
H -5.4886244719 0.3660244195 0.1256504497
H -5.2805771505 -1.1816408766 -1.9302609063
H -4.7515228076 0.1763301273 -2.9424850868
H -3.7301266085 -1.2690433692 -2.7888469096
H 0.8232369150 3.3812051071 -1.7475812782
H -0.3704866505 3.8197005833 -0.4979871749
H 1.4941962687 0.5940313811 -0.8303286408
H 3.6110189206 1.1135157612 2.8668131404
H 2.5783185344 3.3648834428 3.1331470174
H 1.0142480486 4.2276305695 1.4114784268
H 4.3488424016 0.6500880826 -1.1473229815
H 4.9132828925 -0.5039776907 -3.2685047346
H 4.3337227627 -2.8990195582 -3.5804845758
H 3.1977618438 -4.1381603020 -1.7511159147
H 2.6241626213 -2.9705481586 0.3724961928
H -0.4235299611 -0.7201113134 3.5497698541
H -1.1876998930 -2.3021745014 3.6257387741
H -2.1924610766 -0.8361911315 3.7057240859
