51
CONF84
C -0.2670338566 -1.3976376673 1.6171316152
C -0.7165187582 0.0187659812 1.3955680572
C -1.7866827057 0.2854289891 0.6266732893
C -2.3036399785 1.6218478493 0.2940615607
C -2.4321919309 2.0539507237 -1.2050727994
C -3.6523934963 1.8651645653 -0.3297765966
C -4.6308877846 0.7323410354 -0.5508989885
C -4.3377339138 3.1593626563 0.0651125090
C -1.9492503023 1.0891985452 -2.2060075690
O -2.3671316415 -0.0342260463 -2.4187354043
O -0.8782692334 1.6108039449 -2.8635144977
C -0.1608867454 0.6784815481 -3.7368688575
C 0.7455880851 -0.2005089542 -2.9486528946
C 2.0562383220 0.1254285064 -2.4586398775
C 2.5166734149 -0.9700302892 -1.7963850124
O 1.5638046224 -1.9614698283 -1.8352970004
C 0.4970225873 -1.4739116318 -2.5363800559
C 3.7931938513 -1.2969128743 -1.1053921404
C 3.6186498340 -1.5550610039 0.3779129995
C 3.6506276250 -0.4955724753 1.2876579354
C 3.4761938750 -0.7249988080 2.6501207537
C 3.2623212474 -2.0193316280 3.1196712126
C 3.2255399208 -3.0813818350 2.2186189787
C 3.4045376470 -2.8497937918 0.8565005857
C 0.1400678584 1.0524309851 2.0666770593
H -0.9107831723 -2.1153056137 1.1011882117
H -0.2539155350 -1.6416508481 2.6873521036
H 0.7630172073 -1.5308977972 1.2597916111
H -2.3002742005 -0.5610861368 0.1789524773
H -1.9348806976 2.4371956238 0.9085555260
H -2.1197650661 3.0758543515 -1.3951221293
H -4.1516335104 -0.2040441007 -0.8282664981
H -5.2105487528 0.5780804607 0.3661721289
H -5.3310674180 1.0010642370 -1.3494897191
H -3.6140155773 3.9628637102 0.2311111332
H -5.0331305004 3.4774106043 -0.7197367378
H -4.9091099625 3.0145667452 0.9887052228
H 0.4054151666 1.3287802555 -4.4056320453
H -0.8839994545 0.0963972030 -4.3114994772
H 2.5905540468 1.0542058443 -2.6001862899
H -0.3444350767 -2.1392870434 -2.6516594843
H 4.4716533141 -0.4533497633 -1.2612536167
H 4.2458730331 -2.1777005423 -1.5774293117
H 3.8166509059 0.5155329087 0.9243856275
H 3.5074364613 0.1082688257 3.3457854019
H 3.1267217433 -2.1992754864 4.1816407339
H 3.0617222796 -4.0934662138 2.5764956623
H 3.3832894621 -3.6815020432 0.1574121386
H 1.1584280899 1.0111099817 1.6596834542
H 0.2306090003 0.8323048190 3.1377651579
H -0.2316503243 2.0715612043 1.9528990351
