73
CONF17
C -2.9262376501 1.0225786709 -2.6129440285
C -2.6682591111 0.4730603256 -1.2015435629
C -3.8739311589 0.7436383187 -0.3437792513
C -4.6695199141 -0.1838274454 0.1896222160
C -5.8762582309 0.0926369284 1.0395830469
C -5.7234358538 -0.5830194734 2.4101284843
C -7.2060443899 -0.3097377573 0.3449592387
C -7.2780556589 -1.7939347713 -0.0240963444
C -7.4653345005 0.5575271872 -0.8875793577
C -1.4166461415 1.0711343262 -0.5291030402
C -1.2066003235 0.4886563751 0.9010144516
C 0.3206540884 0.4225756546 1.1471786713
C 0.9047246717 1.2201498727 -0.0148646899
C -0.0364356442 0.8861973967 -1.2180622358
C 0.2934829797 1.8741477151 -2.3457595473
C 1.7787017183 1.8273534350 -2.7276676146
C 2.7086441507 2.0317310684 -1.5160408066
C 2.3526810165 1.1107218127 -0.3779994148
C 3.2033403002 0.2638788675 0.2442924206
C 4.6096788579 0.1009710965 -0.0372895321
C 5.4459340007 -0.7955099289 0.5414186701
C 6.9247311786 -0.7945078465 0.2366457502
C 7.7390503457 -0.6184904792 1.5249955526
C 7.3791040885 -1.7131310504 2.5304072849
C 5.8738413029 -1.7355899904 2.8311925714
C 5.0464479125 -1.7835557619 1.5662082052
C 4.0658417437 -2.6760676283 1.3836103812
O 7.5390745427 0.6969892999 2.0752285728
C 0.1541323106 -0.5641949564 -1.6812261155
H -3.8886247395 0.6599721990 -2.9888057590
H -2.1514997942 0.7096790635 -3.3167885185
H -2.9569463093 2.1185350069 -2.6031085068
H -2.5389319504 -0.6162764177 -1.2658854396
H -4.1020498262 1.8000817377 -0.1738046997
H -4.4295480942 -1.2363374447 0.0217424296
H -5.9295334030 1.1785755259 1.2015082484
H -5.5689158918 -1.6622263005 2.3074750277
H -4.8596097692 -0.1744600105 2.9443123320
H -6.6162817203 -0.4234937634 3.0250237458
H -8.0013748304 -0.1048599498 1.0765640861
H -6.5369832867 -2.0439215882 -0.7916084992
H -8.2667850837 -2.0341538349 -0.4290507775
H -7.1052873284 -2.4428263509 0.8398554121
H -7.4508579667 1.6232094069 -0.6330115233
H -6.6976834341 0.3839733852 -1.6505489341
H -8.4404969460 0.3247725609 -1.3285487782
H -1.5795015166 2.1569393064 -0.4459264177
H -1.6585454204 -0.5070527338 0.9691381621
H -1.7123958588 1.1089175597 1.6466878014
H 0.6130484767 0.8348050492 2.1178989293
H 0.6676480274 -0.6156194558 1.1180243296
H 0.7152177078 2.2881605831 0.1921537443
H -0.3097761973 1.6768165970 -3.2372026729
H 0.0407289746 2.8880088665 -2.0030013101
H 1.9901415533 2.6006996769 -3.4750256526
H 2.0114535592 0.8653494737 -3.1995953691
H 2.5847239346 3.0669585313 -1.1625574721
H 3.7496481322 1.9213902671 -1.8281070950
H 2.8071884060 -0.3516847242 1.0475529841
H 5.0587169302 0.7774793307 -0.7620455328
H 7.1722109312 -0.0003062541 -0.4753440654
H 7.2149149145 -1.7555246680 -0.2113418221
H 8.8082714233 -0.6721618392 1.2915749972
H 7.6839830053 -2.6794515101 2.1087169861
H 7.9456285233 -1.5623502287 3.4556560256
H 5.6109819626 -0.8196793858 3.3808005889
H 5.6237466512 -2.5814819445 3.4787708660
H 3.8200769329 -3.4019186932 2.1544682159
H 3.4945997284 -2.7073387665 0.4602807144
H 6.5913881932 0.8891395472 2.0331478808
H -0.1738562079 -1.2775312845 -0.9190277799
H 1.2041070134 -0.7779539292 -1.9008507793
H -0.4262464406 -0.7572340595 -2.5896496730
