31
CONF14
C 5.3614899748 0.7877548335 1.0227647378
O 4.0509509277 0.6386928035 0.4199162692
C 3.2893243149 -0.3238454996 0.9561303015
O 3.5559127204 -0.9593913573 1.9490692114
C 1.9842048435 -0.4410313412 0.2253822208
C 1.8713222861 -0.8552898223 -1.1063673760
C 0.6398733228 -0.8970073274 -1.7492202127
C -0.5086835936 -0.5359754955 -1.0648810160
C -0.4025492845 -0.1320477545 0.2662320642
C 0.8344357023 -0.0840429818 0.9103083444
O -1.4775774628 0.2231931465 1.0351241931
C -2.7153149808 0.3422581963 0.4304774894
C -3.0520333838 1.4846870573 -0.2981072984
C -4.3233768532 1.6234641643 -0.8426970745
C -5.2476264441 0.6054962498 -0.6389946062
C -4.9340544905 -0.5355994066 0.0905105605
C -3.6569498198 -0.6591233709 0.6231518500
Cl -6.8508294282 0.7763677921 -1.3204096418
Cl -1.8744359480 2.7467569481 -0.5256624559
N 3.0480381298 -1.3309321647 -1.8304510117
O 2.9896347748 -1.3785596621 -3.0548964080
O 4.0209861090 -1.6795286074 -1.1652766812
H 5.8432331587 1.5903655950 0.4665209530
H 5.9194277806 -0.1461775701 0.9212503806
H 5.2631866889 1.0491142389 2.0787961545
H 0.5880391420 -1.2369910591 -2.7761496034
H -1.4732343715 -0.5808735765 -1.5565717323
H 0.8880191605 0.2472735658 1.9413104150
H -4.5832300520 2.5105115954 -1.4069466292
H -5.6721426811 -1.3142295422 0.2396471339
H -3.3760408623 -1.5352896421 1.1975394711
