43
CONF45
C -3.3503294882 -1.5107983176 -1.7244920409
C -3.2255497310 -1.5677291742 -0.1935422886
C -2.9452333850 -3.0236364695 0.2171783903
C -4.5783855560 -1.1338085825 0.3967257061
C -2.0871551959 -0.5915108184 0.2996020674
C -0.7978386410 -0.7805483161 -0.5125100912
C 0.4140380218 0.0300490195 -0.0264889242
C 1.5365080525 -0.0464230763 -1.0267704475
C 2.5181457208 -1.0353839896 -0.9280527259
C 3.5331761603 -1.1462198404 -1.8747940511
C 3.5568590870 -0.2476207974 -2.9333869630
C 2.5979742766 0.7492503629 -3.0651452519
C 1.5925606789 0.8389021828 -2.1071685350
Cl 4.8391976898 -0.3718024137 -4.1388291801
C -1.8396315271 -0.8434360370 1.8268952383
N -1.5147723278 0.3463035635 2.6036454534
C -0.3779312677 0.6889012954 3.2388417265
N -0.5349418829 1.8411062120 3.8815463255
C -1.8258658514 2.1666966943 3.6014948230
N -2.4647672811 1.2877057261 2.8386031483
O -2.4741978819 0.7642350399 0.0476045910
H -4.2527324992 -2.0499201350 -2.0310677022
H -2.4989753734 -1.9824681003 -2.2234358046
H -3.7110448239 -3.6709150877 -0.2231471632
H -2.9828358287 -3.1704095331 1.3008204737
H -1.9732093599 -3.3731758447 -0.1439436625
H -4.8798712712 -0.1540865913 0.0148765017
H -5.3458508040 -1.8572582836 0.1036311804
H -4.5744765616 -1.0891088739 1.4907304180
H -1.0139815174 -0.4784318080 -1.5416733896
H -0.5266100676 -1.8414901613 -0.5392031722
H 0.7739467392 -0.3610760508 0.9295232236
H 0.1191692519 1.0736350214 0.1242149755
H 2.4948129405 -1.7340211246 -0.0958894362
H 4.2925694233 -1.9150984074 -1.7869306807
H 2.6360758598 1.4448724059 -3.8959956051
H -1.0194225475 -1.5533035750 1.9599006416
H -2.7276311062 -1.2733594523 2.2926898230
H 0.5150610796 0.0788614799 3.2187398681
H -2.3120166459 3.0619402762 3.9680373703
H -3.0479718442 1.0717239066 0.7648622649
H 0.8393425813 1.6164602659 -2.2030060786
H -3.4358791713 -0.4776920606 -2.0748540018
