22
CONF1
C -3.6612374556 0.6225726344 -1.9267733416
N -3.5152465693 0.1845507080 -0.5306170981
S -2.3085198273 0.8275836597 0.4197538416
O -2.2847987198 2.2695031311 0.2083486199
O -2.4006609755 0.1815433142 1.7248120680
C -0.6980247320 0.1463678690 -0.3816171942
C 0.5291175980 0.2172721083 0.5747667900
C 1.9030825915 0.0933858596 -0.1661057767
C 3.1053592086 -0.2590377300 0.7684153231
F 3.1194539913 0.5517702270 1.8349041705
F 4.2470738452 -0.0969082521 0.0853345396
F 3.0337483325 -1.5286125817 1.1820032434
F 1.8135924276 -0.8812271474 -1.1042948583
F 2.1806933141 1.2658970364 -0.7730410781
F 0.4288655636 -0.7832936257 1.4764569240
F 0.4972799044 1.4045240635 1.2196846539
F -0.9375633891 -1.1396660398 -0.7275601811
F -0.4570383169 0.8600980041 -1.5021125184
H -4.6842510708 0.4013329417 -2.2425514282
H -2.9565437145 0.1301343688 -2.6072233449
H -3.5145671109 1.7032581924 -1.9713504375
H -3.6176400332 -0.8115250209 -0.3647482130
