45
CONF16
C -5.2983994826 1.1900085490 0.7169468869
C -4.6023467436 1.3791179868 -0.5990260798
C -3.4083587577 0.8393292374 -0.8741299107
C -2.6192025903 0.0100465171 0.0749255166
C -1.7115173040 -1.0773480846 -0.4716417846
C -2.9459676019 -1.4274530396 0.3743586791
C -2.7702438495 -1.9380230422 1.7853455070
C -4.0741205892 -2.0893312784 -0.3827547828
C -0.3563270384 -1.2151222361 0.0850436624
O 0.0373488805 -0.8099341615 1.1552570902
O 0.4479254129 -1.8917746913 -0.7962775261
C 1.8047802983 -2.0966335437 -0.3769922964
N 2.5652347097 -0.8727893823 -0.3734491525
C 2.8134679538 -0.1032960722 -1.4957618264
O 2.4989659856 -0.3614859634 -2.6341502225
C 3.5602877285 1.1283326920 -0.9974541725
N 3.7917190822 0.8258239717 0.4005456610
C 3.1454199610 -0.3205444251 0.8007668882
O 3.1133851840 -0.8085617188 1.9060647617
C 4.2596210133 1.8054411453 1.3670481698
C 3.4120918894 2.9925764034 1.4108923688
C 2.7052319714 3.9664768633 1.4043183264
C -5.3315589438 2.2300779320 -1.5973115310
H -6.2996321189 0.7673455172 0.5663633823
H -5.4410650984 2.1563474592 1.2170881610
H -4.7412653347 0.5341780939 1.3887026909
H -2.9622917096 1.0302726651 -1.8495895973
H -2.1673450943 0.5384801224 0.9148150479
H -1.7966055168 -1.3114213748 -1.5279911058
H -1.9613898547 -1.4271556706 2.3094475125
H -3.7006167973 -1.7871827619 2.3449958074
H -2.5557418360 -3.0128986014 1.7833011347
H -5.0250673810 -1.9141914788 0.1336369055
H -3.9132325175 -3.1713823897 -0.4362498615
H -4.1700280184 -1.6970717741 -1.3976270048
H 1.8492791462 -2.5050675694 0.6371691560
H 2.2090622936 -2.7882450946 -1.1190257010
H 4.4891205971 1.2626875805 -1.5652481593
H 2.9315166606 2.0198921836 -1.1356459566
H 4.2685249260 1.3067896493 2.3431542162
H 5.2922599427 2.0983854072 1.1330671547
H 2.0768133713 4.8242137004 1.4232881066
H -5.5166516680 3.2331207939 -1.1927012127
H -6.3144079822 1.8003135518 -1.8286595018
H -4.7712129933 2.3326305934 -2.5297224312
