55
CONF455
C -6.0110943812 -3.7929025844 1.2226243773
C -5.8809891677 -2.5146014008 0.4301221702
O -4.4726888352 -2.1388535015 0.4581284808
C -4.1604282438 -1.0004986306 -0.2035467050
O -4.9642055643 -0.3020338419 -0.7984771444
N -2.8150150080 -0.7747779218 -0.0901438497
C -2.0648375407 0.2770368620 -0.6289115710
C -0.6906615787 0.2489459749 -0.3666276495
C 0.1453394478 1.2203226287 -0.8950607128
C -0.3900427186 2.2907533636 -1.6181333423
C -1.7622695807 2.3345690152 -1.8514476014
C -2.6010185171 1.3284117525 -1.3841882661
S 0.6973459425 3.5729106969 -2.2027504721
C 1.8169783027 3.5924971593 -0.8156698554
C 2.3791711646 4.7903265790 -0.3740332046
C 3.2470900388 4.7812159814 0.7126592936
C 3.5228453391 3.5893881568 1.3819454307
C 2.9528458034 2.3961065987 0.9512689538
C 2.1226439009 2.3924702789 -0.1668192089
N 1.5532387114 1.1807780608 -0.6707537390
C 2.3896489371 0.1362818079 -1.0488571682
O 3.5966284932 0.1844507301 -0.8271548723
C 1.7964303497 -1.0362881444 -1.7965852005
C 2.0100869750 -2.3917193150 -1.1044097653
N 1.1680175513 -2.5849855582 0.0816874324
C 0.8830251023 -4.0087243819 0.3082671163
C -0.0293204640 -4.1668839509 1.5120179542
O 0.5705567882 -3.6199832701 2.6919316261
C 0.8591183112 -2.2335430597 2.4878511644
C 1.7798610401 -2.0273470008 1.2953665099
H -5.4113247579 -4.5918906650 0.7778293577
H -7.0586804117 -4.1072807505 1.2236814099
H -5.6939486377 -3.6451093142 2.2587333422
H -6.4676517065 -1.7007539922 0.8673861379
H -6.1853169977 -2.6475439527 -0.6127233020
H 1.7432650141 -3.1636529801 -1.8336108848
H -2.1871110511 3.1644536054 -2.4071057400
H -3.6612340705 1.3741821526 -1.5852238200
H 2.1319469811 5.7200995758 -0.8763293429
H 3.6894783363 5.7124430689 1.0511645140
H 4.1803445175 3.5883343345 2.2449394887
H 3.1570444946 1.4639691517 1.4647224325
H 0.7426541138 -0.9061288507 -2.0404253666
H 2.3573797671 -1.0644072533 -2.7386447475
H 3.0815177562 -2.5211065184 -0.8692346863
H 0.3810459182 -4.4188348723 -0.5759564676
H 1.8115773411 -4.5888942467 0.4758371997
H -0.9911173393 -3.6615737138 1.3190082208
H -0.2156957871 -5.2252617403 1.7148710395
H -0.0832901900 -1.6807954195 2.3355246946
H 1.3379495966 -1.8725608764 3.4024330569
H 2.7614719176 -2.4977641771 1.4995597642
H 1.9491601541 -0.9507880134 1.1740917865
H -0.2656550889 -0.5704954938 0.2038998644
H -2.2974880401 -1.4680827172 0.4338399241
