33
CONF317
C 5.3836055976 -2.8606290715 -1.9914307862
C 5.1404736803 -2.6740348298 -0.4876113747
C 4.7157670557 -1.2717666962 -0.1490349670
C 5.5048274479 -0.3949787021 0.4823702938
C 3.3288791531 -0.9078966014 -0.5491022753
O 2.4943734941 -1.7184117485 -0.9082930675
O 3.0839116996 0.4215615131 -0.4739684468
C 1.7426672533 0.8487609447 -0.8032592763
C 0.8388234718 0.6585438941 0.4136469977
C -0.5633724717 1.1358353652 0.1252655294
C -1.5067268125 1.0511852678 1.3631910376
C -3.0288731072 1.2490824954 1.0603225478
C -3.8972085709 1.5815935136 2.3171914653
F -3.6479623363 2.8185144541 2.7615928297
F -5.1930124854 1.5046142410 1.9809593279
F -3.6549730868 0.7039386230 3.3014530011
F -3.2004931188 2.2570862830 0.1740983881
F -3.5169480312 0.1075632587 0.5230128116
F -1.3591365664 -0.1696266073 1.9369551993
F -1.1110898497 1.9929290831 2.2585591758
F -1.1371787379 0.3974193661 -0.8799976431
F -0.5522699346 2.4401304522 -0.2956539043
H 4.4803395699 -2.6398370653 -2.5676872497
H 5.6785237274 -3.8923169281 -2.2046249806
H 6.1822852436 -2.1967842959 -2.3366852323
H 4.3677389305 -3.3755806364 -0.1547425832
H 6.0561372337 -2.9027910366 0.0656243315
H 5.1779548636 0.6131339019 0.7087306849
H 6.5034957040 -0.6846922191 0.7960522292
H 1.3777224587 0.2844610677 -1.6646347514
H 1.8430101829 1.9031979930 -1.0622950319
H 0.7933373175 -0.3977805720 0.6893327480
H 1.2301139059 1.2270627405 1.2633077771
