29
CONF237
C -2.8284280293 -0.5854453360 -1.9625180763
N -2.8618215502 -0.4382012080 -0.4945625846
C -3.0396282976 -1.6860154318 0.2835127825
C -4.5169919769 -2.0481616930 0.3710155060
O -5.2668527692 -1.0819000455 1.1065888788
S -2.0679991372 0.8370987052 0.1809245504
O -2.2738314817 2.0252642876 -0.6500771463
O -2.3211387007 0.8473828808 1.6238865058
C -0.1958296045 0.4139335464 -0.0168837205
C 0.7178156399 1.2036840555 0.9593577315
C 2.2575983374 1.2275891160 0.6456730279
C 2.9739383778 -0.1478751424 0.4867919432
F 2.5820045455 -0.7510770820 -0.6436999052
F 4.2954328486 0.0551135257 0.4276767774
F 2.7026399841 -0.9463077305 1.5268823928
F 2.8457809948 1.8737036400 1.6804939446
F 2.4672632148 1.9371895272 -0.4840458035
F 0.5544726145 0.7040083560 2.2027346847
F 0.3180202758 2.5007053542 0.9495398423
F 0.1440755621 0.6796031599 -1.2946597004
F -0.0570479971 -0.9102969122 0.2115317866
H -2.7946282155 0.3951227723 -2.4374321707
H -1.9690845588 -1.1886582297 -2.2782848922
H -3.7501041748 -1.0854902811 -2.2691688418
H -2.6456474487 -1.5447180930 1.2922579766
H -2.4774785371 -2.4932019262 -0.2034098102
H -4.9428133418 -2.1969911391 -0.6308530514
H -4.5988997476 -2.9939048272 0.9156729695
H -5.2533764112 -0.2573026608 0.6028691198
