29
CONF16
C 2.7867471432 -0.8928947726 -0.7448737162
N 2.5818372182 0.3845577163 -0.0587118179
C 3.1014852834 1.5785852649 -0.7321621658
S 1.2737764368 0.4962065034 0.9514173647
O 1.2191300861 -0.7110599541 1.7684659986
O 1.2727697378 1.8362163351 1.5381509122
N -0.1689933158 0.3374894086 -0.0925503244
C -1.3052386126 -0.2472195555 0.5824156312
C -1.5067986250 -1.6168386907 0.4439270883
C -2.5798591463 -2.2193318312 1.0895319453
C -3.4483165221 -1.4556055589 1.8642230679
C -3.2383009617 -0.0858611162 2.0006357122
C -2.1622874450 0.5222378965 1.3654199632
S -0.4639391850 1.7451120524 -1.0385176126
C -0.4076371355 1.0215348350 -2.7204334122
F 0.8235006953 0.5520851259 -3.0487131240
Cl -1.5635037571 -0.3258585372 -2.9660578652
Cl -0.7960164622 2.4078057581 -3.7987847126
H 2.4981656717 -1.7142124438 -0.0872118937
H 2.2202840026 -0.9529738467 -1.6825219341
H 3.8550930679 -0.9856461053 -0.9650994659
H 2.7190002664 1.6713947754 -1.7554001865
H 4.1938005642 1.4967477252 -0.7625862111
H 2.8337581358 2.4680229189 -0.1619414349
H -0.8182145922 -2.1933172024 -0.1634909762
H -2.7396944070 -3.2872796263 0.9837049197
H -4.2879086249 -1.9276486004 2.3636018348
H -3.9091310945 0.5105664433 2.6100959140
H -1.9835086287 1.5871850824 1.4757665899
