94
CONF335
C 9.5341954723 -1.0845127349 -3.1352259857
C 8.4896699708 -1.1647492587 -2.0386279523
C 7.6925997452 -2.4733389846 -2.0758354602
C 6.6608265247 -2.5384430070 -0.9975449184
C 5.3575100092 -2.2626527911 -1.1990674354
C 4.3635594625 -2.2143253533 -0.1644367451
C 3.0854808010 -1.7997299767 -0.3703357686
C 2.0935101712 -1.7185948193 0.6562162303
C 0.8400585802 -1.2305031683 0.4629319891
C -0.1587771247 -1.1519844253 1.4919024964
C -1.3725781252 -0.5976688034 1.3120548623
C -2.3868960974 -0.4601132052 2.3992436160
C -2.5686999415 0.9813386606 2.8814137494
C -2.9147962400 1.9449150733 1.7478244188
C -3.8684344636 3.0753784835 2.1862130480
C -4.0643429058 4.0573640856 1.0170839085
C -2.7089968064 4.5433408071 0.5212125424
C -1.8051324183 3.3678089329 0.1478177539
O -1.6794740087 2.4969738438 1.2848722605
C -0.3772529513 3.8084786182 -0.1760511958
C 0.5674986749 2.6582435774 -0.5271692211
C 1.9986603529 3.1612395723 -0.7064116519
C 2.9239767625 2.0940003135 -1.2206336491
C 4.1671670166 2.4679500614 -1.9272572233
O 3.0125720502 1.9555504900 -2.6483794643
C 5.3290968628 1.5785381021 -1.9185372428
C 6.5933344577 2.0143509763 -1.8313240047
C 7.7534040471 1.1117769846 -1.7398302823
O 8.8265941867 1.4459779037 -1.2614262162
O 7.4906674976 -0.1113934170 -2.2294349779
O 0.1146675829 1.9465625060 -1.7064385752
O -2.4132464903 2.6975946554 -0.9409736480
O -4.9202206808 5.1422391066 1.3886871355
C -5.2020385464 2.4858369209 2.5685549026
O -5.8605405391 1.7556688471 1.8505284280
O -5.5999117294 2.8519407612 3.8009934138
O -3.7176911693 -0.8351207143 1.9601822058
C -3.9287761857 -2.1619386752 1.5934994227
C -5.4346932887 -2.4072574108 1.7248006162
C -5.7929484709 -3.7841609976 1.1755025033
C -5.2040985306 -3.9787712451 -0.2266215718
C -3.6992090650 -3.6776912314 -0.2213162461
O -3.4969268070 -2.3315274884 0.2448848043
C -3.0638911116 -3.7702422657 -1.5927525167
O -5.4479616111 -5.3470818269 -0.5836054559
N -7.2407938504 -3.9962424167 1.2641417963
O -6.1741096709 -1.4195401422 1.0019290725
H 9.0636345872 -1.2041827563 -4.1161743194
H 10.2669170138 -1.8859069983 -3.0006336882
H 10.0576596609 -0.1262582921 -3.1035312767
H 8.9445332341 -1.0184393632 -1.0531085991
H 8.4160845630 -3.2912034793 -1.9747356855
H 7.2226506558 -2.5593203189 -3.0626948042
H 7.0087478743 -2.7541097679 0.0132292541
H 5.0230914295 -2.0271913574 -2.2109182652
H 4.6709979432 -2.5007157891 0.8419702656
H 2.7898935519 -1.4941616673 -1.3754546878
H 2.3754795128 -2.0636381574 1.6518594478
H 0.5640366427 -0.8654787585 -0.5273430961
H 0.1006122409 -1.5600514177 2.4700528753
H -1.6378136016 -0.1812466680 0.3420556614
H -2.1044815425 -1.0916899581 3.2543520591
H -3.3661365920 0.9728737625 3.6331240990
H -1.6551251042 1.3244054885 3.3764915461
H -3.4036195159 1.4029912403 0.9289524471
H -3.4354220261 3.6104414642 3.0402514931
H -4.5933375907 3.5373338682 0.2114720302
H -2.2175296909 5.1205054018 1.3139502648
H -2.8442803548 5.1914192036 -0.3499429663
H -0.4134780177 4.5188260211 -1.0111749849
H 0.0244365450 4.3389619801 0.6941626074
H 0.5424815150 1.9034057314 0.2663958377
H 2.3662596680 3.5171668484 0.2640009775
H 2.0159583867 4.0126540600 -1.3992061473
H 2.9137756066 1.1401220273 -0.6875270133
H 4.3565089479 3.5312406795 -2.0773927850
H 5.1152134438 0.5127610833 -1.9650240255
H 6.8221147217 3.0729639812 -1.7427247233
H 0.2865296708 2.5080825210 -2.4768241491
H -1.7077765139 2.1777422180 -1.3728680731
H -4.4690559126 5.6577893216 2.0718952533
H -6.4657585315 2.4425519718 3.9770808109
H -3.3714277297 -2.8581306070 2.2489834988
H -5.6937064277 -2.3700298805 2.7944351701
H -5.3016066570 -4.5220116807 1.8285035684
H -5.7014568709 -3.3009114866 -0.9367868505
H -3.2080971842 -4.3824077306 0.4732906940
H -2.0033114919 -3.5088280573 -1.5348197291
H -3.1423035093 -4.7879569493 -1.9846606810
H -3.5591302468 -3.0840891075 -2.2881157355
H -5.3966100035 -5.4243673626 -1.5436688692
H -7.7035136746 -3.3068623986 0.6778417574
H -7.4563216473 -4.8994274985 0.8529072265
H -5.8889285891 -0.5511072950 1.3248183197
