22
CONF3
C 2.5541933125 0.0357245006 -0.4363792491
C 1.0903194283 0.2214774983 -0.8271203343
C 0.1455872262 0.0290162747 0.3681225847
C -1.2616359601 0.5664327277 0.0845314568
C -2.2479736798 0.2615716491 1.2146782561
O -2.6562936943 -1.1062007900 1.1760486967
O -1.7846272602 0.0419660697 -1.1492048933
O 0.1134148900 -1.3613605810 0.7318368845
O 0.8113895746 -0.7535238497 -1.8354887836
O 2.9824029853 1.0388356877 0.4842246217
H 3.1673320598 0.0233690138 -1.3477049628
H 2.6793151826 -0.9248333079 0.0728560112
H 0.9544031334 1.2429393264 -1.2242095645
H 0.5559761940 0.5772388572 1.2266741214
H -1.1837840391 1.6567221366 -0.0362290670
H -1.8004779739 0.5255047909 2.1845787659
H -3.1581111490 0.8546298208 1.0798747958
H -1.8416478180 -1.6223519528 1.2903572604
H -2.3428647018 -0.7084318393 -0.8864257379
H 0.2588222012 -1.8460346163 -0.0971820300
H -0.1214956504 -0.6181156518 -2.0743419255
H 3.0857565484 1.8654244470 0.0005030874
