52
CONF22
C -1.4639553114 0.2703283859 -2.3355731693
C -2.7636858939 0.8444470952 -1.8433901913
C -3.3676236438 0.5236597197 -0.6139333799
C -4.5758019046 1.1045004323 -0.2082953679
C -5.1859784824 2.0491477319 -1.0310716685
C -4.6011061657 2.3921575282 -2.2431359399
C -3.4161928694 1.7899352672 -2.6411613858
C -5.3511701639 0.7109310405 1.0176393946
O -6.0958057757 -0.2459226855 1.0511403312
O -5.2166077639 1.6157947703 1.9897423959
C -5.9761038902 1.3470119580 3.2001547239
S -2.5726532115 -0.6486236648 0.4976964167
O -3.2597828698 -0.6105072243 1.7925913541
O -2.3717903170 -1.9421747556 -0.1691849928
N -0.9978754772 -0.0528789335 0.7023672198
C -0.7551825626 1.2410629149 1.1137046935
O -1.6205857543 2.0030050342 1.5195216182
N 0.5737794882 1.6504151996 1.0497068360
C 1.7000778837 1.0228466266 0.5419624958
N 2.8144353774 1.7396777741 0.6059522515
C 3.9099509082 1.1259601052 0.0964338860
N 3.8942956921 -0.1252965397 -0.4443797218
C 2.7211827727 -0.7119763871 -0.4259661348
N 1.5706012807 -0.2168407457 0.0455616623
O 2.5688531524 -1.9529924066 -0.9382344596
C 3.7170201858 -2.6278074856 -1.4596845498
C 4.2757238441 -3.5636526208 -0.4046639773
F 3.3641761183 -4.4791463607 -0.0036297444
F 4.6874126326 -2.9084481230 0.7038659846
F 5.3371320021 -4.2346125563 -0.9059348587
N 5.0831507212 1.7723194244 0.1226594301
C 6.3092851973 1.1511209606 -0.3751730988
C 5.2082862731 3.1576071901 0.5673356493
H -0.6139427558 0.8156609114 -1.9085980750
H -1.3449705720 -0.7848414335 -2.0857831961
H -1.4094506696 0.3800978890 -3.4203218942
H -6.1222804149 2.5014740396 -0.7208509728
H -5.0770052432 3.1277589468 -2.8830824667
H -2.9705389956 2.0543641469 -3.5950138066
H -7.0443039309 1.3261695051 2.9739736786
H -5.7386667216 2.1679253089 3.8746159374
H -5.6627865442 0.3910715024 3.6259162618
H 3.3734346129 -3.2301847312 -2.3033072195
H 4.4986322705 -1.9332443503 -1.7730744968
H 6.2837097243 0.0728487890 -0.2215795406
H 6.4468225130 1.3584629055 -1.4437861406
H 7.1523024055 1.5747668211 0.1759974948
H 4.2250717183 3.5969429327 0.7192808755
H 5.7769487890 3.2025816913 1.5035383225
H 5.7477748307 3.7277426111 -0.1964176059
H -0.2137582732 -0.5690513776 0.2674658165
H 0.7236745773 2.5923208768 1.3887628182
