18
CONF6
O -0.3284211963 -0.6151973450 1.2769953423
C -0.1462931063 0.1597115455 0.3655763881
O -1.0839947429 0.8783309360 -0.2716054864
C -2.4473574651 0.6396506695 0.1717939768
C -3.0215925959 -0.6043261077 -0.4733985888
O 1.0381446664 0.4618930974 -0.1876557098
C 2.1711887736 -0.2309837904 0.4013420601
C 3.4022457412 0.2268457922 -0.3442967342
H -2.4579203066 0.5678927646 1.2631718514
H -2.9843821021 1.5384478433 -0.1404842660
H -2.9756270068 -0.5303976023 -1.5634674965
H -4.0696086398 -0.7192790509 -0.1788071468
H -2.4753636819 -1.4935410984 -0.1497971145
H 2.0094484697 -1.3100377584 0.3092486076
H 2.2183154255 0.0156531826 1.4671662958
H 4.2846133390 -0.2714359872 0.0676443277
H 3.3290723879 -0.0204227786 -1.4066013968
H 3.5375321354 1.3071954972 -0.2468136112
