47
CONF101
C -3.0960201430 3.1440832497 -0.1744391948
C -2.3192720079 2.2755439397 0.7892759690
C -2.2063686372 2.6698500711 2.2437958143
C -1.0097941113 2.8702687389 1.3135633189
C 0.1730489329 2.0186891668 1.5031250500
O 0.2421091003 0.9854429750 2.1328736247
O 1.2409600317 2.5488757046 0.8278253629
C 2.4318664729 1.7155760640 0.8368285248
C 3.5445419743 2.6241668434 0.5643175096
N 4.4438066251 3.3121904162 0.3385970131
C 2.3393801381 0.6205930338 -0.2038702157
C 2.3679478092 -0.7092926307 0.2013390150
C 2.2420658495 -1.7129903757 -0.7555106783
C 2.0899822933 -1.4005310841 -2.1049276137
C 2.0589101051 -0.0634150063 -2.4912600660
C 2.1848189743 0.9526049038 -1.5507442314
O 2.3411251418 -3.0089564745 -0.2978179531
C 1.6331597195 -4.0090963461 -0.9516251056
C 2.3076948112 -5.1942197030 -1.2197906733
C 1.6120912408 -6.2521744522 -1.8004687567
C 0.2613759679 -6.1202859029 -2.1141537761
C -0.3990215281 -4.9240961182 -1.8358798659
C 0.2804303328 -3.8615389913 -1.2481414411
C -2.8696277036 3.8548066808 2.7922673884
C -3.4484592401 3.9259962223 3.9914115970
Cl -4.2182989720 5.3821581339 4.5676470696
Cl -3.5175172305 2.6037756434 5.1237083914
C -2.4031559249 0.7991702481 0.4768899065
H -2.7798914273 2.9267801538 -1.1998771438
H -2.9497808514 4.2110792106 0.0042427711
H -4.1658784026 2.9218193900 -0.0948640567
H -2.0908184530 1.8299986542 2.9219454178
H -0.8005989496 3.8814585610 0.9814912991
H 2.5721022025 1.2841046464 1.8343208695
H 2.4741702128 -0.9759617828 1.2475702774
H 2.0004474300 -2.1907900716 -2.8421080777
H 1.9459118275 0.1834135994 -3.5418586653
H 2.1618712721 1.9931620907 -1.8589008092
H 3.3606244650 -5.2777944231 -0.9718547871
H 2.1332033859 -7.1805248735 -2.0120305823
H -0.2757988701 -6.9453779135 -2.5699616678
H -1.4539950050 -4.8173538912 -2.0682318252
H -0.2290563501 -2.9310464458 -1.0195825238
H -2.8990031163 4.7575671720 2.1896427536
H -1.8824650410 0.1890929187 1.2162455570
H -1.9734415263 0.5965567376 -0.5108111610
H -3.4553813436 0.4966220152 0.4568330708
