46
CONF122
C -2.9689592811 -1.2458163119 -1.6831019588
C -3.3837100700 -0.0058599900 -2.4394133431
C -4.3597541245 0.9753504090 -1.8358082466
C -2.8788115616 1.3698141442 -2.0101507118
C -1.9782230589 1.5387131532 -0.8569105506
O -2.0795662314 1.0248674986 0.2416414418
O -0.9614047141 2.3751684175 -1.1891034315
C 0.0544806939 2.5633042391 -0.1701657599
C 0.9191677256 1.3418583515 -0.0010087611
C 1.3816802902 1.0033052223 1.2685577202
C 2.2156102679 -0.0994912670 1.4283465972
C 2.5856166742 -0.8852855481 0.3391183196
C 2.1172624610 -0.5374867390 -0.9247674758
C 1.2945696508 0.5710347037 -1.1035289637
O 2.5746306382 -0.4139204110 2.7258156177
C 3.8086937171 -1.0020969513 2.9594480903
C 3.8465910122 -2.0615438226 3.8593996978
C 5.0755977104 -2.6297613052 4.1868292688
C 6.2505295865 -2.1476017119 3.6143718209
C 6.1939118248 -1.0832849533 2.7149226086
C 4.9743898898 -0.5000901020 2.3846243602
C -4.9485188738 0.7701952557 -0.5120997522
C -6.1617715951 1.1834523682 -0.1449684517
Cl -6.8078899972 0.8664602461 1.4472403817
Cl -7.2547633023 2.0763989769 -1.1704183237
C -3.4827256372 -0.2131406913 -3.9350363002
H -2.8361118757 -1.0753308766 -0.6152251882
H -3.7263951270 -2.0247101819 -1.8224219260
H -2.0219584735 -1.6202818027 -2.0867052621
H -5.0013728125 1.4802723940 -2.5510005674
H -2.6889810278 2.0650815992 -2.8206694248
H -0.4173151367 2.8421553338 0.7757369663
H 0.6416282731 3.4076508232 -0.5417753096
H 1.0935498123 1.5829311577 2.1405243548
H 3.2207908463 -1.7532834494 0.4771331323
H 2.3981870114 -1.1446202340 -1.7797535175
H 0.9377260460 0.8312003031 -2.0946762901
H 2.9217467598 -2.4274750970 4.2931349369
H 5.1102774706 -3.4569462184 4.8889353760
H 7.2054113713 -2.5957657067 3.8685752426
H 7.1059438880 -0.6957009121 2.2716181032
H 4.9244499319 0.3331603965 1.6913264536
H -4.3735537844 0.2413316930 0.2387299733
H -3.8004306145 0.6990870206 -4.4473222734
H -4.2085035830 -1.0041666718 -4.1535387160
H -2.5117213589 -0.5191327521 -4.3394363558
