40
CONF2
C 2.0447171802 -3.6424435967 -0.2479820973
O 3.2713808416 -2.9651984789 0.1019098984
C 3.2887107734 -1.6314416183 0.0131424384
C 4.4562570088 -0.9650952849 0.3600872977
C 4.4057340032 0.4233740133 0.2529940200
N 3.3229960670 1.0950950904 -0.1482383084
C 2.2655201315 0.3404478293 -0.4541335715
N 2.1887870972 -0.9911421803 -0.4026592407
N 1.1444495642 1.0545352175 -0.8574932438
C -0.1529377007 0.6340176784 -1.1718377949
O -1.0486811046 1.4463711913 -1.3216029437
N -0.3060468299 -0.7288626647 -1.3034928888
S -1.8566015495 -1.4460801764 -1.3120060349
O -2.5582516367 -1.0586666545 -2.5327468817
O -1.5592807018 -2.8451082728 -1.0109846146
C -2.6820140701 -0.7128724642 0.0469116263
C -2.5008642208 -0.9254282981 1.4139518420
N -3.3041264710 -0.1778773498 2.1699622708
C -4.0181937315 0.5540128817 1.2994981052
N -3.6623736963 0.2726803154 -0.0279070004
C -4.2192313660 0.9361441746 -1.0857543951
C -5.1812104981 1.8741912258 -0.8342754214
C -5.5877449706 2.1630642266 0.4848273836
C -5.0088455806 1.5111001226 1.5469357394
Cl -1.3462878759 -1.9923043795 2.1160402510
O 5.5140881713 1.1015549250 0.5779714177
C 5.4656306965 2.5381296455 0.4761504355
H 2.2509222507 -4.6990213904 -0.0811602299
H 1.7912279006 -3.4701865631 -1.2980421404
H 1.2188102190 -3.3131818110 0.3891027250
H 5.3421460761 -1.4868149098 0.6926237951
H 1.2401090693 2.0589515684 -0.8147288493
H 0.4725571328 -1.3135028816 -0.9651146500
H -3.8507289391 0.6774432461 -2.0671751008
H -5.6191280641 2.3978996982 -1.6746776115
H -6.3546160010 2.9093491991 0.6591010968
H -5.2794852375 1.7092406374 2.5765519786
H 6.4555655347 2.8737445078 0.7845989077
H 5.2589457328 2.8466937125 -0.5520057024
H 4.6980958058 2.9471883602 1.1383625970
