21
CONF34
C -1.3730064581 -0.4248547045 0.0753499113
C -2.8370751808 -0.1166147626 0.4143615389
O -3.7022293451 -1.0922001039 -0.1630138290
C -0.4358798631 0.6342739691 0.5988148493
C 1.0892654898 0.3508995862 0.4186307488
C 1.5495026961 0.0343175390 -1.0381802129
C 3.0915793711 0.1361899241 -1.2707720787
F 3.7560178645 -0.5452392168 -0.3273594012
F 3.3826335560 -0.3897879814 -2.4696139162
F 3.4937524476 1.4110897979 -1.2571112860
F 1.1732342236 -1.2323154574 -1.3428663716
F 0.9530227491 0.8836244832 -1.9074892405
F 1.7819987660 1.4299576702 0.8619767649
F 1.4118709977 -0.7146478941 1.1958070758
F -0.6034711822 0.7958142643 1.9535321931
F -0.6995485547 1.8495024410 0.0275268768
H -1.2634197060 -0.4896088584 -1.0111715810
H -1.0777840544 -1.3880045969 0.5064225206
H -2.9752035894 -0.0550206204 1.5010014558
H -3.1278241938 0.8425848229 -0.0220857607
H -3.5874358276 -1.9199601004 0.3184295485
