53
CONF43
C 2.3459214667 -2.5251798371 -0.1836540474
N 2.0746476848 -1.8988967076 -1.4838345652
C 1.4153880543 -2.8950203724 -2.3486359149
C 1.1598517191 -2.3525975341 -3.7471459090
C 0.2916231141 -1.1020859496 -3.6686449649
C 0.9279215961 -0.0915448007 -2.7192609431
C 1.2152451551 -0.6996706044 -1.3432430802
C 1.8655320527 0.3291701122 -0.4113893284
C 1.0517520408 1.6160159487 -0.2225243152
N -0.3761234928 1.3549673672 0.0086826603
C -1.3364964667 2.2283820716 -0.5333977491
C -1.0437815825 3.5651625006 -0.8278968998
C -2.0097257388 4.3874304645 -1.4032590979
C -3.2911903231 3.9079063618 -1.6557741511
C -3.6080067292 2.5909548444 -1.3288188092
C -2.6332574632 1.7569198742 -0.7914749872
S -2.9964230145 0.0367856144 -0.4962103397
C -1.9886480214 -0.2064722387 0.9428224546
C -0.7634235318 0.4825504167 1.0305152584
C 0.0551051257 0.2394500430 2.1371066559
C -0.3264735560 -0.7190089853 3.0698564833
C -1.5275569204 -1.4119232022 2.9829294942
C -2.3739923143 -1.1228134225 1.9169686873
S 0.7923684230 -1.0691057020 4.4306478185
O 0.5018752517 -2.4347240908 4.9263086197
O 2.1703713448 -0.7540655881 3.9840301463
C 0.3315216268 0.1093298067 5.7136538534
H 2.8257703807 -3.4945855850 -0.3492611938
H 1.4216919442 -2.6961031892 0.4037969862
H 3.0283098737 -1.9204764736 0.4186572125
H 2.0626337625 -3.7783131834 -2.3985955930
H 0.4515792069 -3.2194200629 -1.9020796589
H 0.6794913336 -3.1292523029 -4.3533061204
H 2.1197820533 -2.1098318511 -4.2216753876
H 0.1486306919 -0.6580449206 -4.6602648928
H -0.7031637712 -1.3747665869 -3.2884829064
H 0.2616359531 0.7690279961 -2.5982217636
H 1.8717966796 0.2798555154 -3.1427381299
H 0.2457730084 -1.0107723188 -0.8982131228
H 2.8397876169 0.6232024777 -0.8222799451
H 2.0626189828 -0.1225241761 0.5616672878
H 1.1091685503 2.2167505076 -1.1321717801
H 1.4950972551 2.2196054149 0.5834179953
H -0.0620837917 3.9668136380 -0.6047239060
H -1.7562798231 5.4162169160 -1.6381266829
H -4.0453795789 4.5511735345 -2.0961902739
H -4.6046357610 2.2011972478 -1.5118762612
H 0.9874964593 0.7751386115 2.2632125773
H -1.7984780450 -2.1579712437 3.7205744426
H -3.3240007150 -1.6388450764 1.8224350149
H 1.0007946305 -0.0750469864 6.5587933908
H 0.4673141231 1.1182487914 5.3178428870
H -0.7093764579 -0.0731933118 5.9894531013
