44
CONF47
C 3.1738298754 1.2503554676 -2.4305018661
C 3.2081697821 0.7871934965 -1.0143523228
N 2.2593633725 -0.0625961721 -0.6083730632
C 2.3408057249 -0.4396585047 0.6793420116
N 3.2774920159 -0.0521375816 1.5452800574
C 4.1749403185 0.7885488309 1.0201454140
N 4.1955725687 1.2471201415 -0.2352014669
O 5.1128156457 1.1744712356 1.8789932346
C 6.1307800806 2.0897653946 1.4006767438
N 1.3962332708 -1.3065465151 1.1841226307
C 0.2526462292 -1.8624219194 0.6013006742
O -0.4461976852 -2.6350927724 1.2370788807
N -0.0085155513 -1.4570530136 -0.6850059441
S -1.2619021216 -2.1294227920 -1.6186756162
O -1.1871535218 -1.3727383071 -2.8775366005
O -1.1141497569 -3.5877783943 -1.6517177316
C -2.7775175889 -1.7254349276 -0.7411665748
C -3.5078963885 -2.8208871224 -0.2785210187
C -4.7389753927 -2.6185056778 0.3269265597
C -5.2318606642 -1.3231335482 0.4519519209
C -4.4872993928 -0.2438658545 -0.0056471677
C -3.2320817288 -0.4043016920 -0.6039279687
C -2.4938249939 0.8314340885 -1.0754935015
C -2.3437628938 1.9266872512 -0.0086236055
C -1.3118748911 1.6116844899 1.0396039355
F -0.0572665466 1.5328321954 0.5187631543
F -1.2703593731 2.5680275193 2.0020255424
F -1.5396431319 0.4302846583 1.6712605275
H 2.2919369630 0.8695597682 -2.9453015220
H 3.1840051734 2.3438953370 -2.4607271636
H 4.0765751418 0.9059246775 -2.9460397163
H 5.6743810545 3.0259845352 1.0724611926
H 6.7766387475 2.2574121838 2.2614155755
H 6.6912358773 1.6377421684 0.5797196002
H 1.5243646601 -1.5727104377 2.1524306149
H 0.6724682780 -0.8287656743 -1.1439986784
H -3.1075966999 -3.8202074621 -0.3962929888
H -5.3086643972 -3.4671731430 0.6893755253
H -6.2016964539 -1.1499291307 0.9070207848
H -4.8961509080 0.7565431665 0.0949288946
H -3.0672869470 1.2651133879 -1.9025439930
H -1.5132387654 0.5932071521 -1.4857180743
H -2.0262843197 2.8600305434 -0.4831079089
H -3.2830556608 2.1265429533 0.5125948043
