43
CONF71
C 4.1699286175 -2.5478204498 -0.2406033067
O 4.3530910172 -1.6601729239 0.8699497182
C 3.5566216580 -0.5549630123 0.9269453786
C 2.6019582319 -0.2372221321 -0.0368232579
C 1.8685187078 0.9249187390 0.1998445438
C 2.0569503698 1.7527216958 1.3303994687
C 3.0322287655 1.4135256828 2.2743302858
C 3.7688847769 0.2635975733 2.0624598263
N 1.1695142381 2.8216329050 1.2978614748
C 0.4771334643 2.6206282236 0.2042467158
N 0.8559661096 1.5214752789 -0.5152029276
S -0.9054121516 3.6270215933 -0.3654821730
O -1.0700292204 3.2354753263 -1.8333978556
C -2.2641935779 2.7238775012 0.6127917223
C -2.1327951169 1.2440517931 0.5058333209
N -1.4071794889 0.6713520888 1.4809019928
C -1.1267358572 -0.6284808838 1.3839640040
C -1.5122796711 -1.4322064752 0.3136028475
C -1.1279955635 -2.8773710475 0.2295255423
C -2.2965677023 -0.8228883014 -0.6711424306
O -2.7467462271 -1.6010243607 -1.7107972175
C -2.0220769590 -1.3879941370 -2.9427231463
C -2.6574689324 0.5283559921 -0.5853289239
C -3.5997045352 1.1437699598 -1.5825278523
H 4.8819916970 -3.3597520456 -0.0914803946
H 3.1493512815 -2.9488065022 -0.2564458813
H 4.3824479155 -2.0395067609 -1.1885498559
H 2.4196045360 -0.8475055480 -0.9118120969
H 3.2000566569 2.0303190019 3.1511006221
H 4.5300619160 -0.0431112537 2.7722211012
H 0.4276002898 1.2059193539 -1.3748261787
H -2.1296732730 3.0708344707 1.6407233506
H -3.1789871509 3.1422822758 0.1856484493
H -0.5433888927 -1.0628407907 2.1959901233
H -0.4853238427 -3.1499779389 1.0699057016
H -0.5929045055 -3.0898493607 -0.7014224973
H -2.0136627495 -3.5211045457 0.2442987060
H -0.9675414628 -1.6579906281 -2.8124569752
H -2.4833758814 -2.0393652358 -3.6863825955
H -2.0953828012 -0.3442817845 -3.2671828577
H -3.0728479076 1.7935648067 -2.2858063206
H -4.1187480514 0.3658674965 -2.1449859713
H -4.3508900236 1.7530449682 -1.0714368817
