41
CONF102
O 8.7213710161 0.1116904013 0.7156631416
N 8.1771005003 -0.4392161507 -0.2456562786
O 8.8055261261 -0.9856706436 -1.1565965129
C 6.7271783815 -0.4386053198 -0.3111450461
C 5.9987674261 0.1828211740 0.7087458589
C 4.6206929257 0.1859280293 0.6499826767
C 3.9554335509 -0.4327578088 -0.4300448629
C 4.7134900626 -1.0527258066 -1.4411187760
C 6.0938015287 -1.0586784982 -1.3893750783
N 2.5690172763 -0.4949297874 -0.5950018610
N 1.9046761768 0.0987980964 0.3233934272
C 0.5353093166 0.0573815175 0.2090340917
C -0.1929723229 0.7196126273 1.2200407598
C -1.5659106886 0.7496352692 1.2176351635
C -2.3040717500 0.1059943075 0.1845480040
C -1.5608606105 -0.5643762974 -0.8358875772
C -0.1908185432 -0.5861568956 -0.8219686162
N -3.6597443499 0.1229184233 0.1651240237
C -4.4416328885 0.6945025474 1.2582773970
C -4.6873429418 2.1858876004 1.0471038669
O -5.4853548170 2.6287515067 2.1483114241
C -4.4390932978 -0.4768766161 -0.9266203162
C -4.7008375680 -1.9645733945 -0.7054105584
H 6.5191882917 0.6541069002 1.5332424983
H 4.0450804681 0.6624863883 1.4335004718
H 4.1917816072 -1.5271026739 -2.2657204051
H 6.6789125961 -1.5338921933 -2.1663394362
H 0.3594454960 1.2198657555 2.0098207002
H -2.0755598736 1.2872021313 2.0063886259
H -2.0776990445 -1.0840337441 -1.6321979780
H 0.3445415601 -1.1100751583 -1.6051765383
H -5.4031221668 0.1721765871 1.2953052313
H -3.9462680903 0.5231999758 2.2184988240
H -5.2076559633 2.3405016743 0.0908127670
H -3.7287042325 2.7228286295 1.0096331210
H -5.6622844283 3.5693279142 2.0275288674
H -5.3869501137 0.0674502275 -0.9761889092
H -3.9296704745 -0.3010660664 -1.8776667284
H -5.2442048746 -2.1256469512 0.2305670206
H -3.7642502010 -2.5279225741 -0.6635022093
H -5.3063047691 -2.3587619136 -1.5269002903
