63
CONF144
C 3.2127561610 0.2960913459 0.6199147047
C 2.6608296680 -0.2948864768 -0.6730566860
N 1.2108862526 -0.0902438150 -0.7764021451
C 0.9077409559 1.3453967884 -0.7842352193
C 1.3829014462 2.0125748984 0.5035264150
C 2.8839728017 1.7870272781 0.6797408304
N 3.4016906524 2.4233773795 1.8949470118
C 4.3435337390 3.4468587212 1.9354833121
C 5.0240620347 4.1227811289 0.9323293370
C 5.9231232537 5.1211245786 1.3209644101
C 6.1312690247 5.4313583001 2.6667205074
C 5.4460955127 4.7529459440 3.6786556367
C 4.5564936360 3.7639975065 3.2921955943
N 3.7384751754 2.9250387284 4.0246974750
C 3.0148071912 2.0878865504 3.1901924306
O 2.2013139580 1.2316717334 3.5335661782
C 0.7058218721 -0.7540634064 -1.9862374736
C -0.8161131597 -0.7483246020 -2.1189946415
C -1.5323202412 -1.2950901637 -0.8868873919
C -3.0475066757 -1.4372634022 -1.1070229732
C -3.3586849880 -2.4896792854 -2.1600049840
C -3.0754737415 -3.8381492272 -1.9194333143
C -3.3336744872 -4.8115631122 -2.8787380357
C -3.8861594786 -4.4106863950 -4.0847156080
C -4.1882943706 -3.0911105746 -4.3653826127
C -3.9178045380 -2.1333825470 -3.3882775340
F -4.1404404689 -5.3565818046 -5.0300094117
C -3.8280739228 -1.7225372994 0.1660524570
C -5.1859095877 -1.3857708802 0.2142451950
C -5.9630810851 -1.6558219425 1.3355070703
C -5.3548539214 -2.2754111364 2.4148502621
C -4.0174659199 -2.6248520486 2.4160960429
C -3.2582778648 -2.3425414230 1.2804794804
F -6.1037592490 -2.5477397062 3.5184567255
H 4.2982550345 0.1516178015 0.6578047846
H 2.7684467760 -0.2138453674 1.4803442200
H 2.8633179775 -1.3717463900 -0.7011554056
H 3.1875034513 0.1590300566 -1.5389357206
H 1.3792154463 1.8436688460 -1.6576609447
H -0.1737448052 1.4841839026 -0.8780317142
H 0.8448939114 1.5896394902 1.3580072459
H 1.1695159633 3.0865039427 0.4619452356
H 3.3988427312 2.2783019068 -0.1542488246
H 4.8724178828 3.8944986015 -0.1166424432
H 6.4680131690 5.6641572837 0.5556584005
H 6.8357363652 6.2119557263 2.9345427061
H 5.6016392214 4.9884120698 4.7261056422
H 3.6532541868 2.8981874966 5.0285790035
H 1.0461059126 -1.7973310256 -1.9464560576
H 1.1494983195 -0.3052383763 -2.8981401642
H -1.1884508793 0.2589216069 -2.3442890532
H -1.0624383461 -1.3632613516 -2.9938540986
H -1.0980560260 -2.2673405819 -0.6203861405
H -1.3609069149 -0.6287642437 -0.0336713231
H -3.4138709522 -0.4785210371 -1.4961968698
H -2.6488618685 -4.1382075198 -0.9664382463
H -3.1160635489 -5.8591698933 -2.6996802978
H -4.6211993113 -2.8204883130 -5.3224834660
H -4.1441668094 -1.0905084622 -3.5918635294
H -5.6452281903 -0.9023509258 -0.6440796712
H -7.0143201579 -1.3914351822 1.3772148653
H -3.5791530503 -3.1047968781 3.2846055437
H -2.2080717316 -2.6134673284 1.2801842088
