55
CONF12
C -1.0150822428 0.2727483184 1.0191520080
C -1.8963933380 -0.0707192429 2.2248830365
C -3.3465380500 0.1713173031 1.7244481846
C -3.2413076811 0.5315288430 0.2250092168
O -3.1903427300 1.9644399556 0.1503896636
C -4.4240404352 0.0338762427 -0.5924878903
O -4.9798254623 -1.0339990777 -0.3805733348
C -4.9241289023 0.9017026273 -1.7278263231
O -5.9260528599 0.2438196460 -2.4761493808
C -1.8735120236 -0.1302749190 -0.2005461598
C -2.0529514432 -1.6522212783 -0.3146307027
C -1.2080792563 0.4131616923 -1.4664530981
C 0.2363157149 -0.1031206507 -1.5791788499
C 1.0797979480 0.2168164117 -0.3334724117
C 0.4059130859 -0.2806148449 0.9641674374
C 1.2160864785 0.1667927441 2.1779377850
C 2.6618537103 -0.3289268489 2.0840566243
C 3.3145287278 0.0749661254 0.7986949660
C 4.5322939011 0.6649628314 0.8137630408
C 5.3167921639 0.9301261016 -0.3814810485
O 6.4311831277 1.4591295322 -0.3216817380
C 4.7284467687 0.4548383447 -1.6841738006
C 3.2042629076 0.5179777011 -1.6659653658
C 2.5692046257 -0.2461005442 -0.4854434305
C 2.6753873253 -1.7699875801 -0.7282955351
H -0.9230659558 1.3679248717 0.9764737529
H -1.7564148035 -1.1177367548 2.5167266561
H -1.6607274517 0.5446225866 3.0968067006
H -3.8378098917 0.9980744076 2.2437877426
H -3.9702847850 -0.7155199171 1.8495903675
H -2.7981810287 2.2327377033 -0.6909101014
H -4.0767410037 1.1746004371 -2.3765320432
H -5.3052715624 1.8382579558 -1.2930910078
H -6.0949901405 -0.5918524665 -2.0059413629
H -1.0860662155 -2.1559681545 -0.3550278983
H -2.6089001374 -2.0683338705 0.5276166451
H -2.5951582356 -1.9053564987 -1.2308094530
H -1.7695941759 0.1272513498 -2.3646608137
H -1.1618866029 1.5104367504 -1.4373601085
H 0.6906285095 0.3508895577 -2.4645868311
H 0.2238478783 -1.1835993572 -1.7542952203
H 1.1208932759 1.3156363970 -0.2431237745
H 0.3669858280 -1.3788516442 0.9663542581
H 0.7640752380 -0.2103043592 3.1016620019
H 1.2059697942 1.2645640268 2.2349822076
H 2.6536904175 -1.4281032045 2.1315552333
H 3.2576249313 0.0227496601 2.9316793026
H 5.0109635931 0.8974520014 1.7632294311
H 5.0731641481 -0.5790349828 -1.8300329471
H 5.1459057143 1.0470644690 -2.5038533216
H 2.8165428997 0.1263927802 -2.6104622515
H 2.8997203632 1.5711418590 -1.6017020259
H 2.1433874885 -2.3420080276 0.0356540926
H 3.7219479323 -2.0883655023 -0.7152205187
H 2.2559311293 -2.0270021267 -1.7045176037
