38
CONF10
C 3.6591090243 1.9532705811 -3.7375149770
S 3.1630503641 2.2356879188 -2.0259325872
O 3.7132710832 3.5214009606 -1.6010686752
O 1.7472665210 1.9028133924 -1.8798093132
N 4.0586624003 1.0544897770 -1.1447348638
C 3.7047038397 -0.2333776220 -0.7587245462
O 4.5475919903 -1.0139884191 -0.3705644759
C 2.2407932278 -0.5505246947 -0.6101289780
C 1.5073690723 -1.3199527267 -1.5149440669
C 0.1965976915 -1.7001768592 -1.2510469185
C -0.4100816624 -1.3027026142 -0.0734970131
C 0.3172673554 -0.5277002980 0.8303107539
C 1.6364033827 -0.1627593721 0.5741395216
O -0.1902495130 -0.1048722601 2.0313498156
C -1.5541731361 -0.1432730048 2.2253136729
C -2.4024971703 0.7630869107 1.5800816868
C -3.7650538628 0.7462413485 1.8475814010
C -4.2706461051 -0.1652443509 2.7699766835
C -3.4281511165 -1.0600396530 3.4241271224
C -2.0680501717 -1.0451698430 3.1477368212
C -5.7532656972 -0.2139943716 3.0166119715
F -6.3651724101 -1.0726229676 2.1617750048
F -6.0413223861 -0.6320526110 4.2685162402
F -6.3345929281 0.9935512382 2.8452748962
Cl -1.7487888422 1.9172282667 0.4589484921
N 2.0997457878 -1.6945277055 -2.7919085086
O 1.4997745187 -2.4857714100 -3.5052474357
O 3.1802040178 -1.1735748813 -3.0842888286
H 3.3803562640 0.9383567971 -4.0233233133
H 3.1211752964 2.6987696850 -4.3290761796
H 4.7365065318 2.1118050490 -3.8160649175
H 5.0552697781 1.2417126131 -1.0900406356
H -0.3372621665 -2.2950263772 -1.9814374612
H -1.4349377255 -1.5837243299 0.1384335025
H 2.1714689795 0.4382129643 1.3005538761
H -4.4182413891 1.4520691504 1.3487633892
H -3.8300444864 -1.7614490662 4.1455103524
H -1.3840571676 -1.7261711989 3.6418837688
