47
CONF177
C -3.6542278876 1.6386310977 1.0532439616
C -2.1501743644 1.5417189376 1.1753987586
C -1.3427257345 2.7571148070 1.5606213214
C -1.3505514074 2.2854722948 0.1025932407
C -0.1140908064 1.7152463540 -0.4489726355
O 0.8337430546 1.2788276549 0.1691797588
O -0.1705990275 1.7217004483 -1.8185430011
C 0.9564575917 1.0795073532 -2.4818992140
C 1.0893111392 1.7520968041 -3.7722839344
N 1.2164562262 2.2657245132 -4.7983913276
C 0.7113785882 -0.4049964806 -2.6265558172
C -0.2137315462 -0.8852589314 -3.5548541267
C -0.4643376577 -2.2515638795 -3.6226953978
C 0.1844791498 -3.1341515000 -2.7642570095
C 1.0991036325 -2.6378009191 -1.8397630054
C 1.3809314084 -1.2755750604 -1.7711251697
O 1.7543285344 -3.5582294652 -1.0494146857
C 2.1009986800 -3.1973579813 0.2464212517
C 1.1979226433 -2.5485991044 1.0856589061
C 1.5765446187 -2.2706039416 2.3955359139
C 2.8352916679 -2.6455731065 2.8639118325
C 3.7200146574 -3.3043690403 2.0128714241
C 3.3591893149 -3.5807239416 0.6961322324
C -1.9600926337 4.0455124690 1.8793205432
C -1.5097081686 4.9089129022 2.7902372864
Cl -2.3124423350 6.4250523065 3.1120178019
Cl -0.0905009937 4.6495930983 3.7681279550
C -1.6676358123 0.2023487832 1.6825204947
H -4.0259624085 0.8108361528 0.4408449570
H -3.9812384071 2.5723249491 0.5916653575
H -4.1132063584 1.5606360794 2.0449970697
H -0.4174538496 2.5292817676 2.0808432493
H -1.9464275839 2.8578991594 -0.5999775171
H 1.8691110771 1.2614374788 -1.9034687804
H -0.7328127341 -0.1991725682 -4.2168747273
H -1.1780497179 -2.6357444974 -4.3439296967
H -0.0098467922 -4.2008227629 -2.8015725050
H 2.1013019741 -0.8965935772 -1.0552011971
H 0.2166058377 -2.2663031265 0.7185121003
H 0.8770142405 -1.7654813754 3.0544777579
H 3.1227445026 -2.4277636243 3.8871907957
H 4.7012935607 -3.6010816165 2.3697893624
H 4.0380993850 -4.0875500644 0.0182965608
H -2.8552471238 4.3386649242 1.3390947240
H -0.5853046121 0.1757577363 1.8156376851
H -1.9547512119 -0.5919178393 0.9841701426
H -2.1412017230 -0.0070633660 2.6475130928
