110
CONF161
C -3.3130773565 1.2937379131 -1.5727265879
N -4.2253006683 1.4303639110 -2.7230883955
C -3.9844121823 0.2676771196 -3.5951367476
C -3.4444221520 -0.8275462038 -2.6508770807
C -3.4580497875 -0.2017273014 -1.2306801779
C -2.3689308209 -0.7385386236 -0.3402573246
C -0.9963551437 -0.6733406589 -0.4848592998
C -0.1437252711 -1.2560505752 0.4570084746
C -0.7403867754 -1.9268292193 1.5470049353
O 0.1431637947 -2.4535003993 2.4367013472
C -0.3550854146 -3.1055342753 3.5996320898
C -2.1254180266 -2.0298012090 1.7008705964
C -2.9320563902 -1.4147288966 0.7408271709
N -4.3014134227 -1.3574337740 0.7069165867
C -5.1248707433 -2.3316715830 1.3958009429
C -4.7757255334 -0.5609710520 -0.4290178739
C -5.5922738789 0.7096069098 -0.0024417026
O -6.3452092042 1.1812495547 -1.1041221838
C -4.5980398088 1.7227881601 0.5925789020
O -5.2317079342 2.8023908351 1.2655510246
C -3.6167645349 2.3142089535 -0.4558268607
C -2.3154430425 2.6596419260 0.3328024349
C -1.2325092403 3.4236417131 -0.4228278334
C -4.1371422419 3.5965668946 -1.0579631182
C -4.3047345849 3.8114129213 -2.3599518523
C -4.1416652967 2.7270356164 -3.3798549017
C -6.6069785332 0.3352950338 1.0929622795
N -7.8187595127 -0.0499225495 0.6192433860
O -6.3204782233 0.3491922984 2.2865535009
C 1.3809428683 -1.1335816918 0.3917498845
C 1.8568564688 -0.6965440387 -1.0350109017
C 3.3799218164 -0.5916860345 -1.0569844035
C 3.9063845727 0.8487508530 -1.0040755605
N 5.2848751345 0.8530143411 -0.5540879327
C 6.1322482771 0.0438095187 -1.4201903812
C 5.6312765292 -1.3727186142 -1.7841576043
O 5.8199169529 -2.1565355052 -0.5888465389
C 6.4447925178 -1.9777774303 -2.9382303807
C 7.9437351546 -2.0948459969 -2.6695546769
C 4.1340311644 -1.3304460624 -2.1554745131
C 5.4392466087 0.7690045583 0.9038949246
C 4.5340042805 -0.1718747608 1.7668804352
C 3.1084172881 0.2889187478 1.9404351457
C 1.8781678245 -0.1085821202 1.4192548681
N 0.9028765019 0.7677359826 1.8837093043
C 1.4473808441 1.7017147272 2.7185211931
C 0.8474610233 2.7429199606 3.4236833420
C 1.6723616977 3.5384010908 4.2054498867
C 3.0546399594 3.2925519707 4.2829235027
C 3.6415533264 2.2523201771 3.5784839086
C 2.8354101385 1.4327727718 2.7744236737
C 1.9940552254 -2.5294294875 0.6210875460
O 2.9223569826 -2.8166719131 1.3350155712
O 1.3769726048 -3.4335872772 -0.1809207475
C 1.8696309621 -4.7788672149 -0.0549934262
H -2.2713401125 1.4500661698 -1.9097129139
H -3.2401949265 0.5089229462 -4.3719493087
H -4.9135818521 -0.0165715113 -4.1025675847
H -2.4133685985 -1.0822331885 -2.9115402910
H -4.0256069265 -1.7521548206 -2.6860791802
H -0.5791635051 -0.1533185860 -1.3400003373
H 0.5271022747 -3.4190582584 4.1588903236
H -0.9519565701 -2.4178647389 4.2116299429
H -0.9572946815 -3.9848217202 3.3365643526
H -2.5628313858 -2.5423124242 2.5473420114
H -6.1427392474 -2.2919443844 1.0014288120
H -4.7326899558 -3.3488109014 1.2441259823
H -5.1826127519 -2.1244728214 2.4707292605
H -5.4554143253 -1.1559210021 -1.0568301495
H -5.6914701434 1.3297028694 -1.8461778708
H -3.9997369902 1.1423513278 1.3122257071
H -5.6217919886 2.4218459496 2.0641803837
H -2.6269674887 3.2407992640 1.2087894811
H -1.9046767406 1.7140425581 0.7059568816
H -0.8668489556 2.8728718685 -1.2955919685
H -0.3733418722 3.5940690011 0.2336858060
H -1.5934740416 4.3950333151 -0.7715557593
H -4.3101230975 4.4019461105 -0.3510943850
H -4.6027730739 4.7918714287 -2.7205474822
H -3.1813905063 2.8399204572 -3.9258414068
H -4.9381749557 2.7930635112 -4.1336441997
H -8.5625889195 -0.1605270827 1.2898138977
H -8.0402682831 0.2011765655 -0.3330425307
H 1.4117572671 0.2789945256 -1.2625745029
H 1.4765340850 -1.4184085709 -1.7660931297
H 3.7346734417 -1.0603303617 -0.1446178868
H 3.3050361777 1.4637038680 -0.3256945087
H 3.8442726944 1.3023344034 -2.0090555265
H 6.2574441811 0.5896291547 -2.3707003539
H 7.1231906622 -0.0462746954 -0.9636962732
H 5.3183779821 -2.9767491474 -0.6753007950
H 6.0294377459 -2.9747583226 -3.1450907263
H 6.2695848029 -1.3808044370 -3.8427152876
H 8.1256798943 -2.6079150155 -1.7212996160
H 8.4240763058 -1.1130143712 -2.6218408530
H 8.4350922504 -2.6610480718 -3.4664227402
H 3.7659262919 -2.3624593643 -2.2728171344
H 4.0079491248 -0.8356221711 -3.1292402872
H 6.4804234172 0.4912286251 1.1022369060
H 5.2965255123 1.7865001687 1.2974541750
H 4.9891894669 -0.1427396997 2.7672856272
H 4.6161046225 -1.2069354882 1.4443911972
H -0.0786748763 0.6381833727 1.7046005098
H -0.2219654486 2.9237400392 3.3646336499
H 1.2438923838 4.3608215831 4.7689782898
H 3.6709795099 3.9305658218 4.9080602412
H 4.7100638481 2.0772004129 3.6559869302
H 1.2604640084 -5.3783395162 -0.7317393556
H 2.9253122887 -4.8336519561 -0.3376247956
H 1.7622276152 -5.1275016694 0.9759013239
