25
CONF91
C -0.4614596847 1.2201870357 1.2460362998
C 0.2191672073 0.7085050785 2.5081602008
O 1.6164728675 0.4280843987 2.3178704415
N -0.2765173862 0.3409585467 0.0881861580
C -0.5824192509 1.0198559601 -1.1778491478
C 0.1202254849 0.3314608690 -2.3396311400
O 1.5305211616 0.2485916425 -2.0996618071
C -0.9610058945 -0.9616364224 0.2148491950
C 0.0104978251 -2.1308370019 0.1032227267
O 0.9730023449 -2.1450792278 1.1608961198
H -1.5296203555 1.3917782216 1.4831402136
H -0.0280730818 2.1967436775 0.9958146955
H -0.2231007479 -0.2317869708 2.8506393401
H 0.0783382270 1.4550802437 3.3024656830
H 2.0194670967 1.1976884152 1.8942744994
H -1.6686101031 1.0660564383 -1.3797053927
H -0.2094326222 2.0482538297 -1.1114133232
H -0.0265016672 0.9162062966 -3.2537410825
H -0.3002259245 -0.6711650892 -2.5131244708
H 1.6105750163 0.0854840519 -1.1447581048
H -1.7351097779 -1.0698055351 -0.5602817643
H -1.4749198354 -1.0227628941 1.1827493227
H -0.5467612256 -3.0724536670 0.1698667434
H 0.5155969408 -2.1068849371 -0.8747344248
H 1.3298931683 -1.2425233783 1.2512736998
