27
CONF115
C -3.8894667204 0.2244022613 0.5555142026
C -3.9712882294 1.7447111146 0.4607809753
O -5.2901362522 2.0776752761 0.9030985758
C -2.7874897394 -0.4489335112 -0.2365175440
C -1.3461026344 -0.2240112150 0.3083757259
C -0.1871728395 -0.7396602684 -0.6146483728
C 1.1766487256 -0.9086828483 0.1435273049
C 2.4143141185 -0.9636274702 -0.8158115959
C 3.7010240934 -1.5616571936 -0.1580823016
F 3.9352102714 -0.9774051655 1.0258109241
F 4.7443276330 -1.3326961158 -0.9671546608
F 3.5816437707 -2.8813130326 0.0194518049
F 2.7087053252 0.2902724406 -1.2208435991
F 2.1192655175 -1.7224656804 -1.8962978167
F 1.3481663937 0.1327588685 0.9901557315
F 1.1342991731 -2.0543636949 0.8616792498
F -0.5244692707 -1.9333823329 -1.1455884417
F -0.0117217169 0.1546621972 -1.6163884901
F -1.1612049171 1.1103236280 0.4895338283
F -1.2569216853 -0.8358976842 1.5173229016
F -2.8006205648 -0.0343659758 -1.5420369922
F -3.0166187461 -1.7970417319 -0.2319854191
H -3.8187171679 -0.1011678149 1.5977542947
H -4.8197409328 -0.1866285842 0.1470855184
H -3.2160412329 2.2218475772 1.0964451344
H -3.8089019587 2.0653072367 -0.5780223896
H -5.3708895749 3.0369057044 0.9100908006
