21
CONF64
F 0.5160513609 -1.0843079776 -0.9685419274
C 0.1869711586 -0.3084858826 0.0988409108
F -0.0957071634 -1.1265060971 1.1461534093
C 1.4267914571 0.5496933119 0.4825985379
F 1.1193839178 1.2130755950 1.6385158262
F 1.5909600257 1.4907993613 -0.4987756178
C 2.7079090333 -0.2268566599 0.7060070444
C 3.3448541658 -0.8657991316 -0.5239685664
O 4.6978332655 -1.1368503948 -0.1487155499
C -1.1039693409 0.4879911930 -0.2869414940
F -0.9525599517 0.9745228688 -1.5391762242
F -1.2938053274 1.5194963517 0.5644621073
C -2.4100694113 -0.3723669404 -0.2698825711
F -3.3972590291 0.3255695178 -0.8483625968
F -2.7742052028 -0.6646603886 0.9838402832
F -2.2338621189 -1.5141046175 -0.9515304801
H 3.4150635549 0.5083741674 1.1067136946
H 2.5317511306 -0.9714711493 1.4879391281
H 3.3000841244 -0.1705887484 -1.3743516307
H 2.8254554555 -1.7909317944 -0.8011666940
H 5.1252028280 -1.5971418138 -0.8782401866
