67
CONF7
C 1.0887364553 1.8309427288 -0.5848876215
C 0.5204763980 2.7339377862 -1.7058128719
C -0.9635366416 2.3119389240 -1.8895486519
C -1.2196911914 1.3569506618 -0.7205177691
C -2.4329091852 0.4344537225 -0.7549542013
C -3.7268729551 1.2172430500 -0.9986237340
C -4.9645900644 0.3260735769 -0.8956360350
C -4.9608328675 -0.3568129232 0.4609640337
N -6.1919110656 -1.1134834107 0.6922966464
C -6.3494907345 -1.8700816211 1.8093610347
O -7.4418784045 -2.3413455193 2.1571443926
C -5.1031257698 -2.1395171808 2.5580253245
C -3.8952343090 -1.8817068304 2.0393126735
C -3.7299953058 -1.2663320463 0.6697593351
C -3.6722489748 -2.4336471371 -0.3382838498
C -2.4721350294 -0.3550958294 0.5792552806
C -1.1495503769 -1.1013278856 0.8141773157
C 0.0714008567 -0.1683691158 0.7683117115
C 0.1182305212 0.6054273144 -0.5497354316
C 0.4394228536 -0.3337331024 -1.7212844734
C 2.5373627056 1.4401178165 -0.7831475304
O 3.1178203586 1.4680757832 -1.8605568056
N 3.1426371679 1.0020473106 0.3826495968
C 4.4365336572 0.4921066833 0.5239761679
C 5.0607727561 -0.1845526362 -0.5311037303
C 6.3361586266 -0.7004488726 -0.3615343369
C 7.0197955697 -0.5764491360 0.8463463309
C 6.4017929042 0.0803332678 1.8978172687
C 5.1266450750 0.6214512895 1.7466512509
C 4.5060973205 1.3618202700 2.8968166803
F 3.3204998220 0.8011965864 3.2856771432
F 4.2253461970 2.6529528909 2.5795558231
F 5.2939915615 1.3869240871 3.9866545035
C 7.0124958328 -1.4310988635 -1.4874008929
F 8.2001096099 -0.8554969783 -1.8083908949
F 6.2712934540 -1.4671415891 -2.6138240109
F 7.2892219454 -2.7178206767 -1.1503995556
H 0.9939461139 2.3381841168 0.3840826104
H 1.0938531540 2.5946241787 -2.6250037929
H 0.6110686368 3.7863801564 -1.4240429832
H -1.1109124566 1.7970918584 -2.8458842813
H -1.6381206713 3.1720575829 -1.8770035391
H -1.3260658855 1.9791885194 0.1847046190
H -2.3123367771 -0.2763001599 -1.5846144208
H -3.8031484739 2.0259345122 -0.2568076718
H -3.6898918883 1.6920728431 -1.9849097216
H -4.9712355968 -0.4217723062 -1.6978305972
H -5.8759983483 0.9272188925 -1.0018777024
H -4.8871521701 0.4336228671 1.2294779998
H -7.0361690308 -0.8197997586 0.2189468294
H -5.2256326016 -2.6328630994 3.5167454615
H -3.0048479840 -2.1868184112 2.5840762886
H -4.6428706107 -2.9347588992 -0.3898215319
H -2.9309030848 -3.1716173876 -0.0200581168
H -3.4030270453 -2.0950661384 -1.3419386994
H -2.5754352296 0.3938668207 1.3828029949
H -1.0321774163 -1.8911871591 0.0640619567
H -1.1619381207 -1.6016455630 1.7878445109
H 0.0099276837 0.5482403370 1.6002509769
H 0.9841241214 -0.7606005051 0.9119075502
H 1.3820334079 -0.8593904327 -1.5298136356
H 0.5513105198 0.2117839636 -2.6618434291
H -0.3337753991 -1.0914569340 -1.8653894181
H 2.6008490464 1.1220190925 1.2257743903
H 4.5355071331 -0.3065196492 -1.4660595491
H 8.0163588043 -0.9859486312 0.9675464054
H 6.9198222005 0.1839270198 2.8430376630
