66
CONF31
C -4.0684812727 4.1525267910 -0.2892390329
C -2.5570405207 4.0433489001 -0.3415037453
O -2.1069180271 2.7850684992 0.2106778652
C -2.1128219075 1.7196282065 -0.6418609932
O -2.4794129933 1.8129757363 -1.8019110830
C -1.6396487743 0.5113354811 0.0329729173
C -1.6589196497 -0.6798228909 -0.6260545766
N -1.3362426244 -1.8309567447 0.0558331605
C -1.0464969338 -1.8899729032 1.4010821222
C -0.9715805232 -0.7339588808 2.1180388528
C -1.0824127267 0.6308440822 1.4453754575
C 0.2325014819 1.4261855916 1.4525657310
C 0.2910245926 2.6046747613 2.1965264133
C 1.4150775331 3.4192923923 2.1908543995
C 2.5183839560 3.0717151567 1.4149737031
C 2.4790411704 1.9127802636 0.6572655193
C 1.3503951143 1.0770774072 0.6630882737
C 1.3544465977 -0.1390712093 -0.1414763951
C 1.8878668633 -0.2837299954 -1.3645323167
C 1.7660578022 -1.5727022318 -2.0660780659
O 1.1645024879 -2.5492473224 -1.6476906138
O 2.4010940386 -1.5083377727 -3.2569703669
C 2.4144412108 -2.6631721367 -4.1790576844
C 3.2206588957 -2.1320991786 -5.3590146162
C 3.1263393663 -3.8441900744 -3.5272546959
C 0.9919616818 -3.0055200919 -4.6115818028
C -0.7899713211 -0.7980884288 3.5687034610
O -0.6329852732 -1.8020945652 4.2434944932
O -0.8242749809 0.4462600675 4.1238527789
C -0.6262791891 0.4897219509 5.5552014383
C -0.6027241414 1.9474459254 5.9557708294
C -0.8510775413 -3.2801988264 1.9254274934
C -2.0158590554 -0.8954253117 -2.0645860585
H -4.4292000700 4.0247485057 0.7354596876
H -4.5286139205 3.3940964674 -0.9268343953
H -4.3809216409 5.1396048581 -0.6451233372
H -2.0787347745 4.7990687967 0.2880904992
H -2.1880198236 4.1362018453 -1.3670220683
H -1.1468786759 -2.6535626048 -0.4952779819
H -1.7809408647 1.2319893173 2.0341015667
H -0.5771788362 2.8861394659 2.7836068553
H 1.4299099193 4.3267617431 2.7867669223
H 3.4053369304 3.6969238680 1.4073046209
H 3.3432700137 1.6161480672 0.0710353707
H 0.8836473075 -1.0164034735 0.2860279718
H 2.3631535223 0.5339562182 -1.8966132394
H 2.7293434738 -1.2599613198 -5.7991957210
H 4.2242945462 -1.8411362729 -5.0371272407
H 3.3106794929 -2.9066887196 -6.1256837186
H 3.2644081054 -4.6335901945 -4.2728324289
H 2.5504442822 -4.2439277716 -2.6923694814
H 4.1134581939 -3.5384522152 -3.1676274051
H 0.4153123984 -3.4250360330 -3.7868756213
H 0.4847317945 -2.1115874131 -4.9874082317
H 1.0334520788 -3.7405066584 -5.4215366522
H 0.3124886887 -0.0186358095 5.7989569544
H -1.4388054882 -0.0596604459 6.0437402797
H -0.4640750421 2.0309146523 7.0377743200
H 0.2191260717 2.4713530680 5.4594419617
H -1.5421151302 2.4409622226 5.6900489261
H -1.6359750966 -3.5365688688 2.6416731938
H 0.0920283375 -3.3634137901 2.4671577667
H -0.8658154098 -4.0042633945 1.1057118746
H -1.4113340947 -0.2545407453 -2.7090943108
H -1.8600824729 -1.9409322705 -2.3462265402
H -3.0570404604 -0.6222918217 -2.2529422815
