42
CONF102
C -6.3491471604 2.2255999219 1.7079791131
C -6.0473190304 0.8070180293 2.1870079701
C -4.6488659740 0.3727671601 1.8298606424
O -4.3892882995 -0.9410111792 2.2944072565
C -3.2501942539 -1.3583634289 1.5302923646
C -3.4612880648 -0.6760908433 0.1590370138
O -4.4906334047 0.2965319469 0.4050068599
C -2.2173554826 0.0270849034 -0.3542509523
O -1.2353151943 -1.0007509521 -0.5421192126
C 0.0060238400 -0.6265057076 -0.9727926213
C 0.9301775947 -1.6666535581 -1.1319222807
C 2.2170673864 -1.3933284984 -1.5671690246
C 2.5841362539 -0.0767028267 -1.8378444472
C 1.6776030878 0.9588594199 -1.6832221751
C 0.3773477863 0.6896048222 -1.2524750006
O 3.8509401054 0.2094441301 -2.3419052487
C 4.9378456982 0.0479064717 -1.5077291589
C 4.8291513116 -0.0724092124 -0.1228938286
C 5.9903410531 -0.1975270966 0.6382726493
C 7.2446860366 -0.2004461262 0.0338155616
C 7.3352100170 -0.0741850043 -1.3526520011
C 6.1879492002 0.0478762930 -2.1279691367
H -7.3523748908 2.5293466810 2.0185384587
H -6.2967176348 2.2921263569 0.6175989207
H -5.6342972874 2.9410640351 2.1280527878
H -6.7498046659 0.0873668092 1.7513059614
H -6.1404193396 0.7463056562 3.2771930971
H -3.8876377344 1.0648701963 2.2376172398
H -2.3213595708 -1.0035983317 2.0007108815
H -3.2465157452 -2.4479999171 1.4784870992
H -3.8317003589 -1.3820481367 -0.5927749545
H -1.8700743502 0.7615287312 0.3865771826
H -2.4258476964 0.5377379616 -1.3032162348
H 0.6219735058 -2.6845967717 -0.9165404260
H 2.9383655463 -2.1942375897 -1.6959771087
H 1.9826216590 1.9773216110 -1.9007052497
H -0.3211291758 1.5096072014 -1.1400177426
H 3.8564746022 -0.0661224332 0.3560207796
H 5.9053829961 -0.2899276742 1.7168052885
H 8.1425045723 -0.2990005820 0.6348172014
H 8.3065268982 -0.0748028971 -1.8378250613
H 6.2449573703 0.1443923383 -3.2074023579
