45
CONF47
C 4.1985405452 0.2347436524 -1.7938434599
C 3.8355265171 1.6718435401 -1.4225216523
C 2.6229825193 2.2158323938 -2.1881948078
C 1.3479603680 1.3783194207 -2.0483468706
C 0.8633882059 1.2303952747 -0.6076600240
C -0.4440099301 0.4292291383 -0.4801391976
C -0.9220985051 0.3903847911 0.9819104165
C -2.2834374807 -0.2801444166 1.1615939730
C -2.7192672113 -0.4179235925 2.6225654020
C -2.9110588815 0.9101287596 3.3565521764
C -3.4622999581 0.7193312412 4.7681586193
C -0.2967210736 -0.9610780200 -1.0620215906
C 0.6337879719 -1.8635350052 -0.5366249891
C 0.7776898296 -3.1375749656 -1.0744995123
C -0.0098354716 -3.5372693337 -2.1513976065
C -0.9405757689 -2.6510906167 -2.6824840022
C -1.0791579800 -1.3760695047 -2.1404694948
H 3.4091313925 -0.4696666373 -1.5105746852
H 5.1187066525 -0.0813607806 -1.2928888486
H 4.3539733959 0.1364802972 -2.8742353802
H 3.6546944524 1.7373258466 -0.3423832716
H 4.6930807266 2.3261660956 -1.6220904299
H 2.4205837153 3.2416489733 -1.8519067885
H 2.8814085470 2.2842827070 -3.2533606928
H 0.5507448398 1.8417297500 -2.6451994956
H 1.5062359866 0.3832581278 -2.4808654754
H 0.7105855419 2.2257228546 -0.1674560820
H 1.6344804501 0.7413589554 0.0016200390
H -1.2140791942 0.9499883504 -1.0680937900
H -0.1734224763 -0.1333465966 1.5934883256
H -0.9575293965 1.4216645247 1.3541590774
H -3.0417274180 0.2898200862 0.6056586016
H -2.2503194409 -1.2763671665 0.7035516065
H -1.9812187139 -1.0264511140 3.1643622285
H -3.6626746878 -0.9789376578 2.6599574336
H -3.5917476544 1.5476869241 2.7759263297
H -1.9570009690 1.4479900119 3.4116505645
H -4.4371660745 0.2202432411 4.7445624447
H -3.5876907629 1.6757811235 5.2847747889
H -2.7887182819 0.0995061528 5.3699722291
H 1.2568127316 -1.5681915495 0.3031697984
H 1.5074235335 -3.8216120032 -0.6521184299
H 0.1020454033 -4.5315121757 -2.5716332964
H -1.5606058052 -2.9511882789 -3.5216290217
H -1.8074192158 -0.6875417027 -2.5611203874
