59
CONF113
C 7.4068049351 -1.8352952140 -0.5869754385
C 6.9040718790 -3.2785945787 -0.4935013438
C 5.8460063988 -3.1805615853 0.6085628781
C 5.1185532711 -1.8352605598 0.3512220154
C 6.1114830237 -1.0106657379 -0.5336435347
C 4.7822074504 -1.1178620543 1.6544886011
C 3.9625938237 0.1353284980 1.4744040617
O 3.9561057988 1.0287008044 2.3095554898
N 3.1952544356 0.2491826408 0.3110224666
C 3.0372733266 -0.7782984016 -0.6253517676
O 2.2946657052 -0.6313974272 -1.5855174416
C 3.7908215685 -2.0564097621 -0.3729922553
C 2.4047513402 1.4795708229 0.1166404935
C 1.0063235099 1.3504733364 0.7127647564
C 0.1642720805 2.5895247917 0.4206526193
C -1.2304660370 2.5312804986 1.0426964686
N -1.9809784303 1.3164168038 0.7009454042
C -2.2599607500 1.2322188860 -0.7366799720
C -3.0263261737 -0.0476724013 -1.0589108844
N -4.2668442755 -0.1042875290 -0.2857342195
C -4.0083838325 -0.0068488069 1.1509012391
C -3.2386749654 1.2747067352 1.4551776003
C -5.4686141286 0.2580377714 -0.8262146529
N -5.5364862507 0.3834824030 -2.1747052650
C -6.7311301152 0.6782938837 -2.6826837632
C -7.8676980900 0.8611360109 -1.9031469066
C -7.6862883905 0.7198825345 -0.5321409846
N -6.5125078667 0.4258774815 0.0229804952
H 7.9985393249 -1.6329861541 -1.4847156034
H 8.0335944459 -1.6114923961 0.2853139329
H 6.4390326160 -3.5739565308 -1.4427752380
H 7.6921831403 -4.0022452820 -0.2644606666
H 6.3464252095 -3.1397034331 1.5842302789
H 5.1487382394 -4.0242578005 0.6297514614
H 6.2723950467 -0.0010123448 -0.1413741916
H 5.7022958261 -0.9033336477 -1.5452371306
H 4.2049564092 -1.7834031045 2.3133402237
H 5.6840465033 -0.8298618823 2.2036117224
H 3.9256981175 -2.5503025771 -1.3391429347
H 3.1353079322 -2.6965778993 0.2355464889
H 2.3443540084 1.6598995344 -0.9590454214
H 2.9541627490 2.2995063707 0.5833578075
H 0.5196284416 0.4633143649 0.2943390679
H 1.0822416236 1.1970872098 1.7965941983
H 0.0980226024 2.7432853547 -0.6636431033
H 0.6642422821 3.4802278233 0.8223588745
H -1.7940587805 3.4406716128 0.7523963957
H -1.1304159450 2.5510869249 2.1359864457
H -2.8466831591 2.1065896279 -1.0872146758
H -1.3157925227 1.2188655406 -1.2912274022
H -2.4151355931 -0.9163256289 -0.7814161656
H -3.2505182598 -0.1001092793 -2.1231770772
H -4.9490203338 -0.0271887490 1.6990162318
H -3.4057405910 -0.8754178471 1.4462198130
H -3.8842616792 2.1450891320 1.2165368330
H -3.0089209506 1.3126239921 2.5267255031
H -6.7793742652 0.7768522767 -3.7669314808
H -8.8301339482 1.1039992080 -2.3353821708
H -8.5212263624 0.8526435184 0.1555348339
