34
CONF166
C -4.4502979850 -0.8024317347 0.2647748488
C -3.3979322741 -1.8029102217 0.6811748344
O -2.0414243658 -1.2604048977 0.5027971136
P -1.3809833037 -1.0994211642 -0.9401910839
S -1.7009213272 -2.4862483737 -2.2485783064
O -1.6847122658 0.3582428946 -1.4923187427
C -1.5311800113 1.5601782644 -0.6412304082
C -2.4367273000 2.6246367491 -1.2045267271
O 0.1973454154 -0.8496623795 -0.4755467014
N 0.7749091693 -1.9727433219 0.1154302675
C 1.9816879419 -1.7348119362 0.5215290706
C 2.5505501055 -2.8899970351 1.1601283154
N 3.0427845804 -3.8028556072 1.6719497372
C 2.8098006917 -0.5192038940 0.4570128514
C 3.7148975005 -0.2788810981 1.5022547040
C 4.5142022325 0.8560371393 1.4874188807
C 4.4391025314 1.7471371711 0.4193887658
C 3.5608510519 1.4988368673 -0.6339787305
C 2.7422238146 0.3771918780 -0.6207941064
H -4.4104115598 -0.6045480977 -0.8107900051
H -5.4380339370 -1.2118870197 0.4987239745
H -4.3282037631 0.1397553461 0.8067144329
H -3.4458149503 -2.0241812604 1.7487688172
H -3.4675748227 -2.7367401547 0.1150456006
H -0.4771161142 1.8485927541 -0.6824151781
H -1.7995833695 1.2999526106 0.3865567463
H -2.1767845022 2.8483856962 -2.2425986936
H -2.3184561547 3.5376686994 -0.6131018906
H -3.4831054966 2.3113184751 -1.1553805129
H 3.7815841577 -0.9734798591 2.3339747162
H 5.2001548333 1.0405356945 2.3073815061
H 5.0696887840 2.6302448266 0.4034562600
H 3.5130079058 2.1826375944 -1.4750634101
H 2.0764725808 0.1890560933 -1.4520553608
