37
CONF4
C -1.9142218981 -0.3602866900 -1.7811118677
Si -0.4577931547 -0.4495018792 -0.6114187387
C -0.7556408002 -1.7707578098 0.7487811740
N -1.6356403804 -1.2498920887 1.7882391122
C -1.3051426952 -0.7689684472 3.0004169669
N -2.3758824648 -0.2513813345 3.6008981418
C -3.3536569605 -0.4393861633 2.6754861656
N -2.9528250469 -1.0345677079 1.5549655386
C 1.1110567508 -0.9332442535 -1.5228193402
C 1.4870288523 -2.2776975016 -1.6658951969
C 2.6264662411 -2.6440841697 -2.3784133883
C 3.3869435005 -1.6382862679 -2.9497347871
F 4.5003664793 -1.9826644592 -3.6468398795
C 3.0630208080 -0.2963644605 -2.8416844727
C 1.9197206200 0.0438078561 -2.1236260738
C -0.2089435467 1.1669002784 0.3067217052
C -1.2259035776 2.1290980872 0.3840949907
C -1.0782483813 3.2852388309 1.1477199042
C 0.1088589177 3.4609026380 1.8372296385
F 0.2653341319 4.5839520581 2.5843006440
C 1.1459279727 2.5432403645 1.7980972392
C 0.9727750980 1.3962653777 1.0292443232
H -2.0456616666 -1.3270942111 -2.2791275443
H -1.7412190095 0.3993693515 -2.5513262591
H -2.8420960392 -0.1186917871 -1.2539890661
H -1.1908144780 -2.6916816025 0.3453663218
H 0.1953162519 -2.0282234321 1.2270520378
H -0.2993071412 -0.8212380622 3.3961444230
H -4.3843529901 -0.1416389050 2.8229666478
H 0.8883604089 -3.0669959992 -1.2188021899
H 2.9216354044 -3.6820467224 -2.4891380756
H 3.6916787202 0.4562581806 -3.3055384764
H 1.6613766359 1.0955321116 -2.0302109646
H -2.1562990544 1.9847706235 -0.1575771995
H -1.8612629771 4.0334714483 1.2089800397
H 2.0580552690 2.7262187433 2.3560085181
H 1.7809914012 0.6696672167 0.9945397873
