47
CONF112
C -1.9088639358 3.3148645585 1.2404327505
O -2.3290050696 1.9298868207 1.1732896552
C -2.0474954821 1.3073396044 0.0302188689
C -2.3365849048 -0.0008491596 -0.1652352036
C -1.9603835624 -0.5484824947 -1.4781449397
O -1.4198483626 0.0774454983 -2.3785584184
O -2.2674372488 -1.8596042848 -1.5855779232
C -1.8938623310 -2.4819173569 -2.8349996293
C -2.9506870639 -0.8502688357 0.8778129347
C -4.1900187491 -1.4675670426 0.6699811477
C -4.7824870091 -2.2584703165 1.6473993741
C -4.1404066816 -2.4540411559 2.8680536578
C -2.9056351013 -1.8588422936 3.1014848044
C -2.3283563049 -1.0753049580 2.1122028962
O -1.1371279386 -0.4291696516 2.4533936890
C -0.0433104234 -0.5710036512 1.6722051267
C 0.9486290337 0.3927447422 1.8063600567
C 2.0376652706 0.2197753508 0.9678194714
O 3.0383188142 1.1444570837 1.0527977386
C 3.9855995534 1.1716506964 0.0385031690
C 5.2750419386 0.7474065029 0.2988486014
C 6.2386361014 0.8566463395 -0.7011264828
C 5.9124866054 1.3854161993 -1.9489618382
C 4.6197040876 1.8187648264 -2.2066952958
C 3.6426451070 1.7180013840 -1.2069074333
C 2.3167925710 2.1745144639 -1.4284293938
N 1.2318747946 2.5452510949 -1.5959311519
N 2.1624843613 -0.7843504701 0.1036009929
C 1.1511235081 -1.6574888249 0.0993596824
N 0.0494219346 -1.6140402126 0.8455511484
H -2.2047607070 3.6700586293 2.2267564982
H -0.8230701573 3.3809088544 1.1246758030
H -2.4120913849 3.8961236138 0.4622165909
H -1.5674961296 1.8901265122 -0.7546810524
H -2.2087626528 -3.5210625945 -2.7443782083
H -2.4044590570 -1.9971938982 -3.6708553595
H -0.8122481261 -2.4198078878 -2.9804462891
H -4.6931325861 -1.3093962155 -0.2784365487
H -5.7474821430 -2.7168611434 1.4577908842
H -4.5956875245 -3.0684583837 3.6378272666
H -2.3799130090 -1.9946846822 4.0406132346
H 0.8563280940 1.2333965559 2.4817640489
H 5.5114624373 0.3338455664 1.2729209592
H 7.2513653032 0.5223404946 -0.5022607074
H 6.6687010216 1.4647226614 -2.7218404135
H 4.3521627414 2.2404083057 -3.1690184005
H 1.2401702770 -2.4972319254 -0.5885973407
