45
CONF209
C -3.9289836879 0.9718099035 3.6043239420
O -4.4059325079 1.1078314688 2.2499395127
N -3.4486047189 0.6354073388 1.3782041780
C -3.7997537126 0.7407588972 0.1339306622
C -5.0234532240 1.2885719560 -0.3868844933
C -6.2254017237 1.6823320324 0.1565918799
C -7.0111631374 2.1888476462 -0.9117539646
C -6.2463755251 2.0888550533 -2.0355828616
O -5.0384898010 1.5450571115 -1.7428501266
C -2.7978159838 0.1422291423 -0.8253045908
O -3.1520709713 -0.5851240127 -1.7476217447
N -1.5031685930 0.4625022333 -0.5610102928
C -0.4171316370 -0.1106374200 -1.2876113957
C 0.6303399810 -0.9724592336 -0.5190416629
N 1.6544201251 -0.0139082197 -0.9403371347
C 0.7789559483 0.8057072386 -1.6419869299
O 0.9399253572 1.8118834340 -2.2885486934
C 3.0285603700 -0.2407719505 -1.0114456624
C 3.5380227992 -1.4728328690 -0.7951912278
C 2.6804854332 -2.6738041514 -0.4879187112
S 0.9840846214 -2.6293535109 -1.2020659841
C 5.0108774986 -1.7624685151 -0.7427093594
O 5.3490341082 -2.3581410161 0.5403319419
C 5.4704216885 -1.4671473726 1.5702643458
O 5.3969856402 -0.2542880155 1.4316118102
N 5.6597995607 -2.1157966540 2.7384361451
C 3.8237834232 1.0126277252 -1.1938078254
O 3.5754796289 2.0364931081 -0.5942727585
O 4.8120386330 0.8828536146 -2.0916803707
H -3.7476062751 -0.0812898506 3.8388812848
H -3.0159698328 1.5575547608 3.7467280126
H -4.7319041517 1.3652173990 4.2292931174
H -6.5098713976 1.6080892400 1.1925338340
H -8.0157766588 2.5802514098 -0.8532219995
H -6.4067398194 2.3485114588 -3.0710084849
H -1.3052935838 1.0454731004 0.2409549203
H -0.8035220720 -0.6138178880 -2.1799556575
H 0.5025437047 -1.0104624831 0.5670457976
H 3.1548739776 -3.5704338355 -0.8998966612
H 2.6042410696 -2.8200856856 0.5963348793
H 5.2636922635 -2.5390998858 -1.4700441172
H 5.6302751070 -0.8857966548 -0.9125758306
H 5.9083316171 -1.5726850103 3.5484577414
H 5.8270894255 -3.1088863117 2.7502457439
H 5.3107663400 1.7193936616 -2.1197814198
