45
CONF1
C -1.6469951507 -1.7450826171 1.6797570170
C -1.8934104336 -1.5268661338 0.2227361950
C -1.8456107315 -0.3351988427 -0.3834639249
C -2.0874661278 -0.1556645885 -1.8222629516
C -1.0953451543 0.6717993621 -2.7000478619
C -2.5109617910 1.1467912190 -2.4468675478
C -2.7987933608 2.3593560510 -1.5900325643
C -3.4276506842 1.0400029580 -3.6493299003
C 0.1072699938 1.1975109342 -2.0396245512
O 0.1808470812 1.9441463015 -1.0830924948
O 1.2150229646 0.6576561266 -2.6287307518
C 2.4719865194 0.9377889405 -1.9691119133
C 2.5390294353 0.2986699943 -0.6090025684
C 2.3150132872 -1.0649096831 -0.4377645368
C 2.3507130549 -1.6560694132 0.8151101517
C 2.6465692606 -0.9283592473 1.9635190142
C 2.8765709448 0.4306582982 1.7890111573
C 2.8181618074 1.0310352318 0.5384976165
F 3.0381684787 2.3544135035 0.4543971043
F 3.1665302112 1.2031591092 2.8536699959
C 2.6895711264 -1.5972029698 3.3181459694
O 1.3867736225 -1.8194856508 3.8525839036
C 0.7545458249 -0.6096847611 4.2754008483
F 2.1162586891 -2.9774433217 0.9103483837
F 2.0570432357 -1.8358722469 -1.5092350968
H -0.7701492670 -2.3856137771 1.8387861776
H -2.4954421962 -2.2532825612 2.1537194274
H -1.4752907673 -0.7976469790 2.1978013395
H -2.1213678172 -2.4119699545 -0.3732725453
H -1.6070391979 0.5467255122 0.2068661604
H -2.4246156321 -1.0552076364 -2.3331993575
H -0.8975780590 0.2280893887 -3.6702209310
H -3.8381812517 2.3152532956 -1.2461880581
H -2.6800984161 3.2700792301 -2.1870309382
H -2.1442784730 2.4388863055 -0.7245271875
H -3.2043455072 0.1509819954 -4.2462429151
H -3.3212376017 1.9224443059 -4.2899382046
H -4.4709244065 0.9806338925 -3.3203168923
H 3.2248027277 0.5057399899 -2.6317760906
H 2.6255306618 2.0151473186 -1.8905629631
H 3.2925968194 -0.9922831321 4.0074566788
H 3.1492297064 -2.5832704806 3.2195348856
H -0.2103604230 -0.8913396325 4.7017132539
H 1.3598079747 -0.0987979541 5.0374807239
H 0.5850998265 0.0742820279 3.4319738536
