44
CONF118
C 5.2311732218 -0.7661384864 0.7580606282
C 3.7871676733 -1.1838515437 0.4959380086
C 3.2232404305 -0.6726235621 -0.8826906680
N 1.7974901062 -0.5275161774 -0.7067453344
C 1.3109640328 -0.0743410194 0.6027095219
S 2.6851377543 -0.3891316196 1.7876083704
C 0.1338590869 -1.1035194812 0.4707292213
C 0.8227546918 -1.5220944451 -0.8502090338
O 0.6504866183 -2.3585232200 -1.6960453879
N -1.2098465924 -0.6296685145 0.3779065914
C -2.0930142285 -0.7700023909 1.4079123137
O -1.7923395491 -1.2785671987 2.4771022179
C -3.5396990764 -0.3126321028 1.1183362787
C -3.6493751626 0.6936533441 -0.0047884614
C -3.9217711162 0.2796686194 -1.3116459706
C -3.9578277400 1.1853043801 -2.3645965558
C -3.7264257407 2.5364352123 -2.1140823402
C -3.4597952074 2.9688736138 -0.8133645442
C -3.4224411682 2.0517874516 0.2287741266
O -3.7793320274 3.3906397548 -3.1790653552
N -4.0811461888 0.2099816736 2.3697743858
C 3.9034201425 0.5996924956 -1.3592670654
O 4.9003912283 0.6096559906 -2.0384533923
O 3.2861412210 1.7178347544 -0.9143711717
C 3.6510481152 -2.7069245267 0.5504816246
H 5.3427801317 0.3203899698 0.7827337083
H 5.8837005956 -1.1664163696 -0.0246211461
H 5.5659150277 -1.1652374517 1.7196063566
H 3.4151825396 -1.4302728350 -1.6493303111
H 1.0123304540 0.9764876914 0.6462688136
H 0.1925484031 -1.8825403294 1.2370207923
H -1.5137937499 -0.1424957124 -0.4529239087
H -4.0338597773 -1.2450474897 0.7786855952
H -4.1088152882 -0.7725958693 -1.5117839738
H -4.1740152501 0.8641139005 -3.3774198321
H -3.2858074762 4.0242193704 -0.6158553111
H -3.2269061832 2.3827097121 1.2432703993
H -3.6155795503 4.2896225320 -2.8722949294
H -5.0936365417 0.1982469360 2.3368537170
H -3.7800362316 -0.3954688948 3.1274397403
H 3.7991047150 2.4717223639 -1.2477959427
H 4.3358293414 -3.1702213198 -0.1699636000
H 3.9004472713 -3.0700379995 1.5505623048
H 2.6343525468 -3.0351715137 0.3184832737
