46
CONF12
C -3.0911413167 3.2668695678 0.3397937370
C -2.3687641652 1.9364288776 0.2132680029
C -2.6275448453 1.2865916441 -1.1503393488
O -2.3399134364 1.7209754482 -2.2405179668
N -3.2433503865 0.0837385887 -0.8626425114
C -3.4569621829 -0.0875624780 0.5150011642
O -3.9866596617 -1.0291076711 1.0440421124
O -2.9830289809 0.9948262537 1.1584295307
N -3.5857549103 -0.8570408098 -1.8098930567
C -2.8040243128 -2.0365958501 -1.8368335630
C -3.3731625551 -3.1974611378 -2.3697510092
C -2.6089159967 -4.3529349217 -2.4787213872
C -1.2806386130 -4.3698026004 -2.0544186960
C -0.7230590308 -3.2104220113 -1.5217860569
C -1.4731952683 -2.0423699150 -1.4125795201
C -0.8734819904 1.9905513278 0.4612194303
C -0.1052929763 2.9828956472 -0.1559444846
C 1.2726185900 3.0127429509 0.0048418771
C 1.8963273180 2.0457906509 0.7908294116
C 1.1470656030 1.0534267170 1.4177230610
C -0.2320703560 1.0272680258 1.2417600857
O 3.2576145992 2.1751039968 0.9546039799
C 4.0136379296 1.0453261242 1.2429305521
C 4.9056873713 1.1272898946 2.3051435851
C 5.7398570705 0.0438281955 2.5730217034
C 5.6738274246 -1.1064764649 1.7905444137
C 4.7733892160 -1.1694941572 0.7273534391
C 3.9400730873 -0.0920703051 0.4427662768
H -2.9077076480 3.6861124737 1.3317435220
H -2.7257963427 3.9628587270 -0.4172946196
H -4.1644975270 3.1224150605 0.1917673394
H -4.5882811920 -1.0129071192 -1.8287417989
H -4.4096666478 -3.1897999865 -2.6951484548
H -3.0607690003 -5.2494297369 -2.8919654350
H -0.6896870750 -5.2757904092 -2.1365798458
H 0.3095023014 -3.2058727903 -1.1864164114
H -1.0172295753 -1.1470649632 -1.0022026636
H -0.5731935408 3.7357765771 -0.7798885635
H 1.8716826019 3.7803782779 -0.4733261716
H 1.6290232084 0.3080622551 2.0403223162
H -0.8050205549 0.2502349770 1.7339672301
H 4.9409436360 2.0300506004 2.9060792500
H 6.4397147041 0.1012694822 3.4007450401
H 6.3224132520 -1.9495130902 2.0046777960
H 4.7230286315 -2.0594260349 0.1077712701
H 3.2424013320 -0.1296695979 -0.3877542640
