55
CONF34
C -6.4250944930 -3.7041162225 0.4415073078
C -6.8273366034 -2.2527739825 0.5947591386
O -6.1368096689 -1.4135683335 -0.3762093822
C -4.8791670331 -1.0325641696 -0.0415914172
O -4.3329145937 -1.2868390315 1.0179180767
N -4.3436843294 -0.3175629028 -1.0796300047
C -3.0817176130 0.2855373553 -1.1535068908
C -2.0997711906 0.1411258022 -0.1699407495
C -0.8627804752 0.7516927711 -0.3483661575
C -0.6063797983 1.5526655829 -1.4627756021
C -1.5963306066 1.7072731499 -2.4329549021
C -2.8148019919 1.0653399259 -2.2893968022
S 0.9664256712 2.3705687359 -1.6294000368
C 1.2607159528 2.7043741034 0.0924689021
C 1.9221230847 3.8668119414 0.4885425513
C 2.1179603838 4.1201219498 1.8418659455
C 1.6137814096 3.2425577415 2.8009442270
C 0.9396077081 2.0920101489 2.4073332392
C 0.8057310002 1.7931875249 1.0522011317
N 0.1776150363 0.5880466636 0.6182457314
C 0.6544051277 -0.6908338984 0.9056435123
O 0.0727744488 -1.6864519493 0.4886471006
C 1.9150066354 -0.8183828610 1.7293363975
C 2.9485680581 -1.7847197439 1.1005629661
N 3.6744589379 -1.3135442529 -0.0754139323
C 4.4048049011 -0.0638350159 0.1431765486
C 5.2675836396 0.2375944180 -1.0718181991
O 4.4684423974 0.3442490601 -2.2556321750
C 3.7464546522 -0.8749424019 -2.4715253667
C 2.8554112597 -1.2034418431 -1.2841780543
H -5.3631033560 -3.8418605826 0.6608581258
H -6.6295052131 -4.0572476196 -0.5732715677
H -7.0036785842 -4.3143426471 1.1421931514
H -6.6195190032 -1.8757145793 1.5993931805
H -7.8842358276 -2.1033263275 0.3644197759
H -4.9494643435 -0.1851933406 -1.8771103120
H -2.2799775332 -0.4537145091 0.7114570792
H -1.4141562403 2.3333855040 -3.3002405202
H -3.5778657277 1.1846526688 -3.0525801730
H 2.2734396062 4.5685228494 -0.2611489132
H 2.6405712222 5.0206489443 2.1470918734
H 1.7367422753 3.4577378465 3.8570257188
H 0.5374597490 1.4028157096 3.1430587577
H 2.3825822069 0.1407284538 1.9462273537
H 1.6102873236 -1.2504372985 2.6907518042
H 3.6890308975 -2.0046074996 1.8796060945
H 2.4480736513 -2.7242356317 0.8412580182
H 3.7271520175 0.7977406289 0.3077274340
H 5.0430980633 -0.1666501904 1.0299525113
H 5.7766553780 1.1983357158 -0.9514492734
H 6.0208876173 -0.5561371216 -1.2044468479
H 3.1431222904 -0.7243289095 -3.3715253586
H 4.4582120641 -1.6981576517 -2.6468050570
H 2.3426630817 -2.1561530852 -1.4623732579
H 2.0864470806 -0.4120424878 -1.2008812041
