20
CONF49
C -0.0565839321 -0.6826178534 -0.0859935725
O 0.7187244895 -0.1257620600 -1.1774317426
C 1.9865685739 0.1557849784 -0.7308173165
O 2.8351528145 0.6433801438 -1.4529611784
C 2.0964074783 -0.2241287778 0.6615652033
O 3.2269140331 -0.0775635444 1.3947080682
C 0.9098875168 -0.7254662247 1.0547392304
O 0.4905331686 -1.2045090729 2.2309691827
C -1.2939609570 0.1881894659 0.1966195258
O -0.9243869233 1.5512240964 0.3751652806
C -2.4142800534 0.0168173108 -0.8274646769
O -2.0587591940 0.4262219383 -2.1494889664
H -0.3756287177 -1.6927030730 -0.3743920423
H 3.9108223684 0.3016928247 0.8210644370
H 1.2066596611 -1.1638600875 2.8836210566
H -1.6943990311 -0.1530230113 1.1603607096
H -0.4921258955 1.8486071717 -0.4381566194
H -3.2908063469 0.5727332820 -0.4688649553
H -2.6798998735 -1.0445996143 -0.8846993003
H -2.1008389786 1.3895819960 -2.1885426201
