34
CONF5
C 5.0832801667 -0.0790168998 0.6205640510
N 5.1705409474 1.2059201118 -0.0933393629
S 4.2463555739 1.5351793114 -1.4136511664
O 4.1887926895 0.3463138303 -2.2657736262
O 4.6639504467 2.8447498771 -1.9203377092
C 2.4277482951 1.8822098338 -0.8171087888
C 1.5122305100 0.6246380025 -0.8066883189
C 0.1690607470 0.8318555275 -0.0169939527
C -0.9223989439 -0.2416523857 -0.3676767476
C -2.0645834894 -0.3315722113 0.7066293211
C -3.3565317200 -1.0436120455 0.1680893857
C -4.3052658720 -1.5440656441 1.3102506953
C -5.7609132859 -1.8623959672 0.8320909764
F -5.7339892925 -2.6472159165 -0.2540976298
F -6.4050800676 -2.5045024938 1.8154641701
F -6.4280045389 -0.7396360643 0.5466099386
F -3.7915387529 -2.6745496727 1.8394534538
F -4.3889936802 -0.5989593302 2.2747521940
F -4.0365046014 -0.1738791513 -0.6119539671
F -2.9918517658 -2.1117698578 -0.5769419282
F -1.6015965658 -1.0213512227 1.7729084730
F -2.3966852450 0.9195112847 1.0963797798
F -0.3280684563 -1.4518560902 -0.4643535826
F -1.4728018689 0.0795767172 -1.5598008432
F 0.4373247688 0.7656657533 1.3072303981
F -0.3236645702 2.0566919738 -0.3055671082
F 1.2220613823 0.2969175497 -2.0849179968
F 2.1880117064 -0.3925797572 -0.2224567073
F 2.5084980853 2.3991092275 0.4293639738
F 1.9175153767 2.8067629051 -1.6467463923
H 4.9548076017 -0.8849785248 -0.1031441207
H 4.2667565946 -0.0973519665 1.3489605709
H 6.0349267968 -0.2235003567 1.1372523288
H 5.3166127264 2.0293436580 0.4852260331
