45
CONF157
C -5.0358471909 4.2957704240 -1.1213969897
O -4.5406075593 3.1127661190 -1.7664868676
N -3.4773103178 2.6174159631 -1.0432915672
C -2.9607065438 1.5433386791 -1.5557410280
C -3.3754665636 0.8687461881 -2.7569554753
C -4.4822125834 0.9465595884 -3.5722343331
C -4.2732246651 0.0284075693 -4.6316790210
C -3.0536441829 -0.5394015136 -4.4100778873
O -2.4938529034 -0.0477867444 -3.2828394119
C -1.8437218184 0.9609573317 -0.7220485156
O -1.6054579520 -0.2347244981 -0.6759026931
N -1.1215680447 1.8786762304 -0.0075903259
C -0.1920136318 1.4379498999 0.9834918833
C 1.0300028884 0.5652909036 0.5710162044
N 0.6168953172 -0.4068399962 1.5846099426
C -0.5542350214 0.2481526196 1.8964364579
O -1.4830618511 -0.0278303414 2.6298884199
C 1.3953058306 -1.4675986714 2.0718306548
C 2.7039643868 -1.5436075670 1.7059371604
C 3.4270362927 -0.4731937126 0.9270999987
S 2.6874591620 1.2064914143 0.9476594862
C 3.5784156623 -2.7286263906 2.0526577140
O 4.6942187163 -2.8314431132 1.1299323145
C 5.8929368266 -2.3511691147 1.5689074570
O 6.0635410495 -1.7490330280 2.6086940631
N 6.8583993409 -2.5982395829 0.6353851157
C 0.7662228680 -2.5011797095 2.9694761588
O 1.4329254075 -3.4099216019 3.4186250479
O -0.5317674461 -2.4165127711 3.2569194614
H -5.3774682788 4.0642764115 -0.1076887357
H -4.2617000131 5.0695103820 -1.0903227819
H -5.8740587472 4.6291341204 -1.7356575152
H -5.3384996123 1.5786545351 -3.4149256788
H -4.9402613330 -0.1831884727 -5.4530062775
H -2.4715546846 -1.2771987887 -4.9394910061
H -1.4664720973 2.8263674365 0.0174219843
H 0.1242401717 2.2893042969 1.5948928278
H 0.9688288760 0.1580606876 -0.4428512391
H 4.4211362029 -0.3444199704 1.3686842000
H 3.5786022263 -0.7908021299 -0.1114874862
H 3.9589837588 -2.6515625093 3.0760152146
H 3.0375881486 -3.6665769484 1.9532394383
H 7.8070597192 -2.4555343026 0.9358555613
H 6.6845708137 -3.2965042389 -0.0678684739
H -0.9736213226 -1.5639666849 3.0048663316
