53
CONF256
C -4.0083589822 -2.1767757531 -4.0826783946
O -3.8128183156 -1.1283048905 -3.0927786172
C -3.2620105955 -1.5212193136 -1.9443252944
O -2.9383311420 -2.6570769479 -1.6746946998
C -3.1530398667 -0.3502113637 -0.9466131753
C -4.4024790561 -0.4032898385 -0.0315897740
C -3.9214476028 -1.2277661929 1.1391661226
C -2.5191456470 -1.2910695423 1.1759802539
C -2.0101868590 -0.5654157450 0.0278329303
N -0.8674857143 0.0165266301 -0.0426005442
N -0.6632648307 0.8157498443 -1.1309063323
C -1.6939597047 0.9599978574 -2.1751652364
O -2.9853561510 0.9056605862 -1.5876912844
C 0.5060791206 1.5271928992 -1.2512345319
O 0.8286897167 2.0618053942 -2.3014066749
N 1.3371750235 1.5425777186 -0.1030178974
C 2.7445121857 1.4037825409 -0.3131655943
C 3.6255726232 2.3829500317 0.1422440892
C 4.9896965719 2.2364106693 -0.0740168707
C 5.4388191129 1.1203370625 -0.7638325497
C 4.5759471220 0.1506932690 -1.2495354581
C 3.2143720695 0.2922566880 -1.0096405545
O 6.8199481196 1.0093666117 -1.0467824955
C 7.5577771195 0.3316780319 -0.1397131631
F 7.5071732267 0.8809288377 1.0958499201
F 8.8295450295 0.3448714580 -0.5537257139
F 7.1697864578 -0.9578334975 -0.0037468369
C 0.7957552178 1.8696701983 1.1470280777
O -0.2536663388 2.4581988344 1.3001918085
O 1.6054388522 1.4566620526 2.1300975759
C 1.1862507884 1.8401191029 3.4647197994
C -1.8530950492 -1.9347516396 2.2150903149
C -2.6045694460 -2.5376770535 3.2171372410
C -3.9972093181 -2.4757980772 3.1567490622
C -4.6810049597 -1.8241977568 2.1319680240
Cl -4.9285132856 -3.2524367587 4.4279533254
H -3.0462962518 -2.6221256282 -4.3445461375
H -4.6797953563 -2.9403182563 -3.6844987846
H -4.4523090455 -1.6772856354 -4.9419092590
H -4.6333725437 0.6202262976 0.2872976842
H -5.2836387954 -0.8165354348 -0.5287197747
H -1.5797078728 1.9383106857 -2.6409729090
H -1.5697670234 0.1667806360 -2.9270294114
H 3.2477173904 3.2568626318 0.6618318261
H 5.6945957686 2.9848702791 0.2695647754
H 4.9626437060 -0.7018545300 -1.7960358824
H 2.5170144185 -0.4598926624 -1.3641530988
H 1.9643917554 1.4606343771 4.1251406620
H 0.2225834027 1.3819566200 3.6980028025
H 1.1126902653 2.9274833655 3.5374176405
H -0.7693848683 -1.9798244176 2.2394851498
H -2.1194751460 -3.0595792232 4.0337407523
H -5.7644867254 -1.7833208515 2.1222368485
