50
CONF15
C 5.7386884951 2.0059997968 2.9635365258
C 4.9158193269 2.7877964972 1.9654994956
O 3.5897885156 2.2064219239 1.9652820844
C 2.7121617682 2.8027980127 1.1083733273
O 3.0132069640 3.7280994826 0.3757228466
N 1.4580613777 2.2570616277 1.2108805821
C 1.2055466462 0.9666320046 1.8435411645
C 1.2097090283 -0.1617011272 0.7952079924
C 0.2440693532 0.1479665165 -0.3189577382
C -0.7669197187 -0.6796018204 -0.6532198591
C -0.9910981085 -1.9806393220 0.0289405194
C -2.1289823377 -2.1358708172 0.8332266577
C -3.0763787853 -0.9779145293 0.9530741704
C -3.8798355893 -0.7730624214 -0.3362643926
C -3.1205730143 -0.4790501294 -1.6165383900
C -1.7206789032 -0.3970196160 -1.7641766838
N -1.1419762765 -0.1156406492 -2.9478263468
C -1.9082137432 0.1002219148 -4.0135291719
C -3.2965767895 0.0404814225 -3.9737496232
C -3.8923020608 -0.2515150217 -2.7585652171
C -2.3692007116 -3.3525962134 1.4680298538
C -1.4771094829 -4.4034753092 1.2928653877
C -0.3486663616 -4.2728673800 0.4942090807
C -0.1173042703 -3.0555599416 -0.1374047293
Cl -1.7874310488 -5.9317168800 2.1005793304
C 0.4606589426 1.5074192076 -0.9252179410
C 0.4888694039 2.5886464114 0.1717803980
H 5.7953569118 0.9508734728 2.6816486771
H 5.3073672290 2.0757134342 3.9659568532
H 6.7552869681 2.4086649117 2.9967421373
H 5.3307125159 2.7282873023 0.9538841792
H 4.8394897534 3.8464449717 2.2349721555
H 1.9490449224 0.7818726063 2.6181047462
H 0.2172802792 1.0117164914 2.3219297424
H 2.2277548542 -0.2361653532 0.3860882206
H 0.9742949947 -1.1111866001 1.2816326357
H -2.5120555115 -0.0659836135 1.1834309905
H -3.7790294786 -1.1463552065 1.7752157934
H -4.4866645227 -1.6724894484 -0.5089453444
H -4.5931557057 0.0462121086 -0.1763648047
H -1.3865784222 0.3237199986 -4.9430776437
H -3.8883732702 0.2148828502 -4.8658748161
H -4.9759201711 -0.3035810001 -2.6809298368
H -3.2417694065 -3.4812561786 2.0998613625
H 0.3311972271 -5.1067837051 0.3659670848
H 0.7546261521 -2.9342888234 -0.7727624108
H 1.4268393030 1.5262229154 -1.4480244350
H -0.3076020033 1.7505075166 -1.6595254211
H 0.7503449976 3.5598267208 -0.2508886990
H -0.5017791514 2.6618301892 0.6406606077
