44
CONF139
C -2.9618385863 -1.9127662221 -3.2131041700
S -3.1379473640 -2.2579913278 -1.4532671154
O -3.0634527248 -3.7220168731 -1.2702741111
O -4.3264735869 -1.5495619844 -0.9290511391
C -1.6281548603 -1.5483522004 -0.7059682887
C -1.4144651641 -0.1657332678 -0.5842369463
C -0.1858292335 0.2172416157 -0.0262997603
C 0.7630208358 -0.7074367483 0.4071993281
C 0.5056929156 -2.0674703823 0.2626691656
C -0.6907941239 -2.4898823069 -0.2939344358
C 2.0410246465 -0.2694846849 1.0668221810
O 2.0457337773 0.2359162602 2.1675494903
C 3.3220000476 -0.5358719831 0.2730701248
C 4.5344054717 -0.3332756674 1.1757979925
O 5.0353867483 -1.2928811532 1.7284737343
C 5.0635273081 1.0684084712 1.3305580660
C 4.3059162437 2.1127473913 0.5119889891
C 4.0887159448 1.6285676889 -0.9225282771
C 3.3001797477 0.3504483929 -0.9941147164
O 2.6719985849 -0.0070538753 -1.9675466605
Cl 0.2349423004 1.9161524328 0.0667602683
C -2.4046950035 0.9046435848 -0.9983723192
O -2.8275944321 1.6839267322 0.1314840761
C -3.7310337997 1.0261358218 1.0036493616
C -5.1513231821 1.4796781575 0.7187208952
F -5.3125477752 2.8059149844 0.9473763194
F -6.0268385272 0.8235607509 1.5185062921
F -5.5241869101 1.2589166182 -0.5631242211
H -2.0446058940 -2.3941065297 -3.5592455176
H -3.8417295912 -2.3517045942 -3.6924136593
H -2.9301006778 -0.8335826540 -3.3747251327
H 1.2385974264 -2.7971681490 0.5914774892
H -0.8967483247 -3.5467042984 -0.4097557217
H 3.2801929597 -1.5776909663 -0.0645084482
H 5.0570496960 1.3038632305 2.4012173155
H 6.1195494184 1.0322301076 1.0303832026
H 4.8720980223 3.0472905169 0.4972492901
H 3.3407345772 2.3359809300 0.9786178212
H 5.0601019146 1.4126706843 -1.3949683184
H 3.5894455065 2.3718001041 -1.5509614745
H -1.9109593283 1.6131020610 -1.6688149663
H -3.2671398724 0.4814414592 -1.5138990376
H -3.6959335230 -0.0650142611 0.9166528337
H -3.4959205127 1.3151126517 2.0333674919
