39
CONF18
C -1.9226880800 -0.0086650135 2.7996428506
C -2.8577263715 0.0702031097 1.5902472163
C -2.9439716097 1.5042600433 1.0615734185
C -2.4690300736 -0.9537062354 0.4737218810
C -2.4345552703 -2.3981913340 1.0059528554
C -3.5148029678 -0.8796650272 -0.5674981646
N -4.3863202495 -0.8204487264 -1.3240830203
N -1.1824597310 -0.5692244133 -0.1102305166
C -0.6657942480 -1.1336399829 -1.2207471059
O -1.2212352868 -2.0159380532 -1.8714470362
C 0.7036838308 -0.6143896489 -1.6710552067
C 0.6425062163 -0.1179204687 -3.1073786031
O 1.0982098415 0.4460540366 -0.7775031702
C 2.4115913488 0.6640447910 -0.5187532493
C 2.7047442923 1.5843643371 0.5006487231
C 4.0097465629 1.8942732321 0.8497828232
C 5.0446441287 1.2665436610 0.1661938454
C 4.7922343594 0.3520801555 -0.8450291474
C 3.4759475800 0.0556498187 -1.1859705941
Cl 6.7039958308 1.6492982874 0.5992133091
Cl 1.3867797785 2.3550942609 1.3567024915
H -1.9436800708 -0.9896032545 3.2788127134
H -2.2443410233 0.7313646789 3.5380941135
H -0.8861094877 0.2271741775 2.5344835383
H -3.8593718494 -0.2404437591 1.9110406866
H -3.3709068559 2.1478094312 1.8357136522
H -3.5787114644 1.5763894655 0.1734761033
H -1.9558636341 1.9063911329 0.8123464113
H -2.3094495829 -3.1014659198 0.1820797913
H -3.3664817117 -2.6198730821 1.5326998411
H -1.5941113655 -2.5062548461 1.6936534732
H -0.6490709619 0.1635321471 0.3364633501
H 1.3942013133 -1.4611790704 -1.5673778745
H 0.3261046810 -0.9321685265 -3.7621043225
H -0.0749729381 0.7037858694 -3.1876233213
H 1.6239523785 0.2354210896 -3.4319071597
H 4.2095680290 2.6063787590 1.6412368338
H 5.6078115483 -0.1271008261 -1.3735911435
H 3.2959328283 -0.6502343866 -1.9872187755
