47
CONF2
C 3.6847294862 -2.6116433340 -2.1759018952
C 3.7819778055 -1.1814071864 -1.8257063507
C 2.9474205962 -0.2974409876 -1.1839657114
C 3.6811256264 0.9276530342 -1.1844474354
N 4.8508813461 0.7985717921 -1.7633878457
O 4.9090080867 -0.5424464432 -2.1817921391
C 3.3087170064 2.2379077965 -0.6187011662
C 2.8562373411 3.2892465264 -1.4268248623
C 2.5029715424 4.5245050943 -0.8986998999
C 2.5977458357 4.7208690484 0.4738967117
C 3.0335166834 3.7026818205 1.3147585929
C 3.3810721544 2.4792081346 0.7599621970
Cl 3.9213202310 1.1928549548 1.8157499746
Cl 2.6966227603 3.0345600676 -3.1512023781
C 1.6367448715 -0.6468365355 -0.6165122881
O 1.2928490321 -1.8202363888 -0.4545263846
N 0.8241707855 0.3901881885 -0.2677970423
C -0.4417092433 0.1686737719 0.3543563755
C -1.5937015684 -0.6084017971 -0.3755167235
N -1.6200391512 -1.5399816914 0.7571178738
C -0.5864530737 -0.9195458788 1.4473414795
O -0.0811893336 -1.1459914068 2.5209860334
C -2.9048038436 -1.9779017732 1.2459432485
C -3.8695470801 -0.7422817014 1.0984967223
S -3.2872628611 0.1105276150 -0.4705114281
C -3.6850783959 0.1774430134 2.3055670219
C -5.3379213081 -1.1191791889 0.9322368747
C -3.3815035367 -3.1873909829 0.4564102629
O -3.1113195608 -3.4010666168 -0.7034935341
O -4.1580713133 -3.9832797067 1.2119631336
H 3.9131422533 -3.2262970514 -1.2984312729
H 2.6669767503 -2.8515915211 -2.4876561429
H 4.3929107673 -2.8527901312 -2.9710307070
H 2.1567796311 5.3158274769 -1.5526027556
H 2.3244678185 5.6819037035 0.8961561901
H 3.1047695288 3.8548452311 2.3849965584
H 1.1046556854 1.3413958441 -0.4548843435
H -0.8166730607 1.1179448664 0.7476184990
H -1.3198575255 -1.0535009856 -1.3344039716
H -2.8250876692 -2.2450793574 2.3044466297
H -4.0550957399 -0.3230609902 3.2078828403
H -4.2511946872 1.1010460972 2.1608237031
H -2.6358889722 0.4419270588 2.4629083051
H -5.6848068605 -1.6458590315 1.8270298730
H -5.9416147846 -0.2145774164 0.8174357262
H -5.5033045648 -1.7552305874 0.0587359414
H -4.4786894118 -4.7167615238 0.6579737115
