66
CONF67
C 0.9849797218 -2.3052481466 2.7264215429
C -0.1558181849 -1.6611214143 3.4772967377
O -0.6825242524 -0.5881892666 2.6472249215
C -1.6787695671 0.1487917300 3.2053433268
O -2.0964975752 -0.0822713062 4.3346195762
C -2.1481391465 1.1939841037 2.3017749578
C -3.0819189300 2.0935587769 2.7282474097
N -3.5795358041 3.0108692202 1.8324062563
C -3.3771061972 2.9624243425 0.4720855194
C -2.4513680277 2.0913753851 -0.0267122502
C -1.5369174985 1.3045349828 0.9082245416
C -0.1519612226 1.9547932352 0.9812528038
C -0.0864612712 3.2597128355 1.4813345109
C 1.1153407201 3.9442699164 1.5919482733
C 2.3012229222 3.3201858449 1.2023787315
C 2.2598486859 2.0308848231 0.7023778928
C 1.0464615058 1.3249292164 0.5702780257
C 1.0509608687 -0.0282418222 0.0325617064
C 2.0586966293 -0.6233757965 -0.6299699386
C 1.9046914323 -2.0006028595 -1.1204217788
O 0.9343798159 -2.7162339361 -0.9220583613
O 2.9944168342 -2.3546265752 -1.8343110468
C 3.1009126191 -3.6852949542 -2.4863988476
C 3.0841491646 -4.7867480772 -1.4326917774
C 1.9959165517 -3.8438844614 -3.5245077768
C 4.4646771250 -3.6111028598 -3.1625736388
C -2.3049939068 1.9386236074 -1.4705994237
O -2.9173529658 2.5604120364 -2.3319631918
O -1.3928279800 0.9830146763 -1.7965132892
C -1.2581164659 0.7290823186 -3.2250245834
C -0.2698911650 -0.3966740800 -3.4113728431
C -4.2538720499 3.8929127652 -0.3086551787
C -3.6674631442 2.2040798270 4.1021634225
H 1.7884831038 -1.5862113100 2.5430178473
H 0.6515387859 -2.7064629903 1.7653944320
H 1.3859888719 -3.1275028962 3.3266834584
H 0.1750737854 -1.2357135106 4.4299228793
H -0.9633585067 -2.3725355474 3.6804773759
H -4.2666509330 3.6651265433 2.1764299044
H -1.4382087390 0.2994243991 0.5037595315
H -1.0031679318 3.7511436041 1.7924358065
H 1.1303493154 4.9555712056 1.9862729740
H 3.2514440364 3.8359108485 1.2974864585
H 3.1883489204 1.5449661577 0.4224080807
H 0.1559639934 -0.6237691535 0.1702969931
H 2.9921434790 -0.1239524835 -0.8650882625
H 2.1042908829 -4.8810794668 -0.9635279653
H 3.3353017027 -5.7361125013 -1.9157697381
H 3.8352346147 -4.5854332854 -0.6624314241
H 1.9981092515 -2.9919120275 -4.2118914892
H 1.0135238727 -3.9269516087 -3.0582050895
H 2.1880719317 -4.7522478440 -4.1037896985
H 4.6615434872 -4.5496660191 -3.6876955295
H 4.4893315626 -2.7927047300 -3.8879647834
H 5.2534875406 -3.4528505912 -2.4213449458
H -0.9220070913 1.6495189616 -3.7132052303
H -2.2440492607 0.4703211858 -3.6243513177
H -0.1986208255 -0.6310153260 -4.4778500213
H 0.7230105727 -0.1161016996 -3.0512309815
H -0.5926139321 -1.2970110101 -2.8806296283
H -3.6592947934 4.5274179217 -0.9679928655
H -4.8390401316 4.5223616620 0.3662505437
H -4.9398055889 3.3302724828 -0.9471439826
H -2.8864523362 2.1829572434 4.8627724267
H -4.2410272245 3.1298562814 4.1966057336
H -4.3320629491 1.3595633056 4.3057332507
