53
CONF3
C -3.2214401438 1.5721684451 1.0515160640
C -1.8786500003 0.8356598884 1.0300740498
N -1.3493765066 1.1280850886 -0.3174605697
C -2.3775175342 1.7776190094 -1.1590897713
C -3.6731264309 1.4868574359 -0.4143566123
N -4.1469126508 0.1305769759 -0.7133864104
C -5.2864732306 -0.2436181442 0.1379990444
C -4.8220821014 -0.3313623683 1.5873560745
C -4.2454163158 1.0129064848 2.0404625410
C -0.0492191282 0.9514600042 -0.6797743433
C 0.5888578288 1.7356180978 -1.6791908675
F -0.1185961648 2.7246765941 -2.2821667181
C 1.8847692380 1.5627812453 -2.0621626206
C 2.6909420350 0.6115522180 -1.4188852905
C 4.0530643325 0.4164873457 -1.8642418241
O 4.5612424501 1.1161505204 -2.7887631546
C 4.7823262420 -0.6362866675 -1.2114256881
C 4.2089070604 -1.3076728463 -0.1604614415
N 2.9614252092 -1.0813312677 0.2891959231
C 2.5810009293 -1.7033294779 1.5586505117
C 2.3262065733 -0.8178666863 2.7323898477
C 3.5715888188 -1.6662113569 2.6853995047
C 2.1291973321 -0.1734916174 -0.3827953833
C 0.7553828973 -0.0638668498 -0.0960727782
O 0.1495829271 -1.0005822881 0.7019402453
C -0.5581812142 -1.9957847723 -0.0722277088
C 6.1689104439 -0.9816301720 -1.5999697806
O 6.6803064737 -0.2339685877 -2.5822811355
O 6.8168892817 -1.8751701617 -1.0748308584
H -3.0383850048 2.6301042508 1.2773807819
H -1.1859964441 1.1972916760 1.7982625934
H -2.0291611151 -0.2363722028 1.1847696756
H -2.2307221854 2.8621835583 -1.2205616601
H -2.3686870091 1.3628225805 -2.1726514999
H -4.4319772986 2.2581522991 -0.6356604831
H -4.4298734840 0.0971607388 -1.6877118451
H -6.1156347327 0.4876540741 0.0653978703
H -5.6707289707 -1.2115677059 -0.2021152775
H -4.0713099465 -1.1261834983 1.6729850582
H -5.6634558250 -0.6092960270 2.2318629219
H -3.7957205744 0.9277336937 3.0370903082
H -5.0672402676 1.7357167010 2.1244426007
H 2.3087524314 2.1823011797 -2.8437939111
H 4.7779473393 -2.0534234174 0.3823372924
H 1.9687783396 -2.5912351288 1.4467956367
H 1.5135208237 -1.0982184864 3.3926744180
H 2.4570210640 0.2487527520 2.5801404372
H 3.6284621567 -2.5503849278 3.3107325071
H 4.5128964443 -1.1503818420 2.5288733575
H -1.0055940223 -2.6801879663 0.6510258870
H 0.1420295412 -2.5368629663 -0.7198103890
H -1.3437744569 -1.5307888103 -0.6798602912
H 5.9552434235 0.4346039945 -2.8478016306
