44
CONF50
C -0.7773735551 -2.8783515564 1.4271275150
C -0.8561692542 -1.3776319853 1.7012067785
C -2.2522778980 -0.8691002895 1.3436927741
O -3.2073834524 -1.0315401620 2.0770626731
O -2.2927614980 -0.3062344039 0.1350756504
C -3.5878172829 0.2198823864 -0.3385391479
C -3.7831793272 1.6087735619 0.2373900448
C -3.5022420623 0.1983249596 -1.8494990699
N 0.2030660398 -0.5965622736 1.0346907698
C 1.0759674147 -1.1912361525 0.0754284631
C 0.5907378430 -1.5939664028 -1.1680842975
C 1.4533978747 -2.1596146857 -2.0981002904
C 2.7927993399 -2.3042935953 -1.7791854852
C 3.2847865036 -1.9085323582 -0.5391102969
C 2.4208978252 -1.3618733289 0.3998063248
Cl 4.9779380132 -2.1130941631 -0.1725456405
F 3.6321794270 -2.8364786985 -2.6868005038
C 0.3211718196 0.7081060428 1.4319163209
O -0.3901946039 1.1664655227 2.3313224547
C 1.3160634645 1.5759095936 0.7305586464
C 1.2632879225 1.7722449623 -0.6518273943
C 2.1514929632 2.6529016824 -1.2612028558
C 3.1055280981 3.3245431822 -0.4988895607
C 3.1545173054 3.1330954094 0.8808891240
C 2.2520066923 2.2730338430 1.4978693218
H 0.2129794797 -3.2593440746 1.6890134730
H -1.5186245842 -3.3764358673 2.0561701194
H -0.9862010149 -3.1209442014 0.3827793746
H -0.7534237966 -1.2141983462 2.7788558844
H -4.3652096321 -0.4620578878 0.0187342203
H -3.8068183553 1.5833202307 1.3298208621
H -4.7324061947 2.0192738480 -0.1199383033
H -2.9736707382 2.2699996553 -0.0887895723
H -2.6941309304 0.8495821194 -2.1977899665
H -4.4449309369 0.5596313699 -2.2701669109
H -3.3250579926 -0.8167266604 -2.2153680189
H -0.4549056116 -1.4460089770 -1.4134122229
H 1.1042592516 -2.4757977222 -3.0750464319
H 2.7920790102 -1.0622292459 1.3734866436
H 0.5231399140 1.2481256590 -1.2477863265
H 2.0994768908 2.8127438504 -2.3335338143
H 3.8059925406 4.0009143889 -0.9785743921
H 3.8940820259 3.6573795029 1.4778222804
H 2.2769321574 2.1280019399 2.5734708046
