27
CONF10
C 4.5771437999 1.3133767456 -0.2554279645
C 3.4437279672 0.4479359016 -0.7458504802
O 2.4769229966 0.3399078677 0.3517028129
C 1.3786160887 -0.3726152095 0.0993858459
O 1.1276224497 -0.9350544698 -0.9448969423
C 0.4940235424 -0.4099651620 1.3334004949
N -0.8210707468 -0.9523335718 1.0358284289
C -1.8221495377 -0.3466809673 0.2742986911
C -2.9489040964 -1.1792990208 0.1080025266
C -4.0741134015 -0.7937685474 -0.6036784518
C -4.0885502860 0.4699120381 -1.1813723462
C -2.9944863498 1.3170481622 -1.0409374299
C -1.8709906377 0.9197574074 -0.3207329385
Cl -0.5546681860 2.0805621607 -0.2131795448
S -2.7248603534 -2.7283256448 0.9017431918
C -1.0853368288 -2.2503187337 1.4468082198
O -0.3350920484 -2.9625286865 2.0869625334
H 5.3178342353 1.4147823460 -1.0538528729
H 5.0662542440 0.8641870410 0.6132698359
H 4.2199580321 2.3115382795 0.0124669754
H 3.7751119341 -0.5613597007 -1.0069317412
H 2.9291172653 0.8866651265 -1.6058366508
H 0.9619635785 -1.0845284500 2.0583883409
H 0.4255184178 0.5749455785 1.7962322180
H -4.9171142080 -1.4680014139 -0.7048596764
H -4.9528826231 0.8016177538 -1.7456860420
H -3.0035957507 2.3025429580 -1.4919183362
