47
CONF7
C 0.3404170817 2.4853429811 1.2245109782
C -1.0302808050 2.3795677985 0.5619583057
C -1.8718136946 1.2563369673 1.1660891678
C -3.2278370175 1.0702838019 0.5083576376
O -3.0789511118 0.4061575784 -0.7822652489
C -3.1007624279 1.1611323078 -1.8871752276
O -3.2856939969 2.3558324316 -1.9350566486
C -2.9351917242 0.3136446467 -3.1530713301
C -4.3099480126 -0.0282335324 -3.7098103509
O -2.2651466154 -0.9237514087 -2.9282811314
C -0.9908713922 -0.8850791086 -2.4323671886
C -0.4933810477 -2.1033403371 -1.9622392081
C 0.7806517332 -2.1732214911 -1.4246138202
C 1.5517895575 -1.0208301133 -1.3523727240
C 1.0806084354 0.1875717558 -1.8282810488
C -0.1978380930 0.2612744526 -2.3790017844
O 2.8615899099 -1.0917632846 -0.8545322013
C 3.0334615267 -1.0522148211 0.4912106826
C 4.3564054757 -1.1583415808 0.9482965546
C 4.5663800407 -1.1081977783 2.3078109010
C 3.4671472372 -0.9553463320 3.1624888365
C 2.2022212441 -0.8635741556 2.6025310436
N 1.9832733314 -0.9120701535 1.2833037034
C 3.6838919047 -0.9116306713 4.6400314093
F 4.6054574376 0.0252689823 4.9823331777
F 4.1521710609 -2.0960573598 5.1145846427
F 2.5515818128 -0.6295022073 5.3197551588
H 0.8999589626 1.5523796029 1.0984803404
H 0.9306466110 3.2982324602 0.7904550491
H 0.2475655966 2.6784140420 2.2994188595
H -1.5742583699 3.3281580018 0.6504771405
H -0.9023295484 2.1993398849 -0.5100281744
H -1.3209660047 0.3074862247 1.1149474314
H -2.0483170775 1.4642353025 2.2306485302
H -3.7467397203 2.0222456243 0.3602972501
H -3.8582333466 0.3898790467 1.0864058781
H -2.3855467542 0.9307583110 -3.8765529633
H -4.8669286789 0.8905333706 -3.9066145311
H -4.8627969350 -0.6405869899 -2.9925996017
H -4.1990663752 -0.5880195813 -4.6414050633
H -1.1278180687 -2.9808165009 -2.0166053777
H 1.1744673164 -3.1097905426 -1.0453490600
H 1.7053444012 1.0719042624 -1.7640278055
H -0.5563882144 1.2147861326 -2.7480217876
H 5.1677334007 -1.2716878029 0.2395696890
H 5.5698218545 -1.1824649713 2.7144454488
H 1.3245180893 -0.7414453567 3.2318637941
