53
CONF156
C 0.0806785722 5.2260042518 0.3276824576
C 0.1838011579 4.2865819261 -0.8562858602
O -0.1201866192 2.9215124268 -0.4590565848
C 0.8872067897 2.1961271043 0.0803926006
O 2.0337779095 2.6209367641 0.1813168149
C 0.4190287599 0.8860067536 0.5176900862
C 1.3204508188 -0.0552156894 0.9116829706
N 0.8826320831 -1.2400425933 1.4372767508
C -0.4235140156 -1.4978781987 1.7746706197
C -1.3934814833 -0.6158047284 1.3913643678
C -1.0712998376 0.5662359580 0.4785443660
C -1.5180687111 0.2743382725 -0.9545418484
C -0.9393531796 -0.8144641897 -1.6193978930
C -1.2821446719 -1.1569304398 -2.9202006220
C -2.2335832436 -0.4021332658 -3.6022751133
C -2.8281950150 0.6859554462 -2.9751177900
C -2.4665126753 1.0108070032 -1.6690197965
Cl -3.2739205610 2.4146619195 -0.9622807610
C -2.7776459761 -0.8341398735 1.7965652702
O -3.2093285252 -1.7458699925 2.4921405400
O -3.5914420535 0.1317643534 1.2974098745
C -4.9873979841 0.0121638243 1.6383491353
C -0.6150301722 -2.7550844939 2.5659144247
C 2.8361279506 0.0576354560 0.8641416401
O 3.4520215277 -1.2220507923 0.9472044260
C 3.4717213527 -1.9059595146 -0.3209451588
C 4.0882478831 -3.2766003459 -0.1063863111
N 5.4840264870 -3.2733737964 0.3546354246
H 0.8278245450 4.9824368344 1.0876172829
H -0.9153001711 5.1706724682 0.7767596279
H 0.2514852966 6.2536284573 -0.0082642282
H 1.1768580308 4.3141519272 -1.3121444664
H -0.5691305259 4.5166542742 -1.6136522882
H 1.6021264330 -1.9005113828 1.7058034466
H -1.6227630917 1.4393048797 0.8283345917
H -0.1962438977 -1.4052870435 -1.0907313499
H -0.8098623479 -2.0082433932 -3.3995163706
H -2.5157599624 -0.6534350238 -4.6195401529
H -3.5694545728 1.2843127756 -3.4932505744
H -5.4750191618 0.8599003666 1.1571762318
H -5.3950904076 -0.9286003545 1.2588153912
H -5.1229307232 0.0579547299 2.7222138761
H 0.3307261563 -3.2942188868 2.6599081420
H -0.9903373633 -2.5253582119 3.5662482533
H -1.3551323504 -3.4032859849 2.0931382789
H 3.1458997664 0.5862208124 -0.0420505429
H 3.1827233265 0.6382196923 1.7263487568
H 2.4478263037 -2.0079573918 -0.7157801428
H 4.0632985577 -1.3160794705 -1.0378633749
H 3.4791678782 -3.8274713567 0.6219593489
H 4.0258347573 -3.8240733273 -1.0546043898
H 5.5420567203 -2.7373317821 1.2153043284
H 6.0525801516 -2.7667855552 -0.3185155908
