38
CONF1
C -1.8169354514 4.2021803255 -1.1070881530
N -0.8846749297 3.0822526547 -0.9836661094
C -1.1487849482 1.9863578733 -0.2830605059
C -0.3411399722 0.8821055424 -0.0024336414
C -1.0923437201 0.0291756100 0.8575255220
O -0.7973190002 -1.0430879487 1.3892978947
C -2.4773216422 0.6911852258 1.0222390781
O -2.3751847221 1.9319490045 0.2706817116
C -3.5914644263 -0.1671059614 0.5025852234
C -3.8772150423 -0.2232455371 -0.8635024607
C -4.8664309650 -1.0811418288 -1.3336195996
C -5.5666248814 -1.8981164020 -0.4470922437
C -5.2773933141 -1.8490163823 0.9142308002
C -4.2958861427 -0.9826970171 1.3893459302
C 1.0132653143 0.6334800359 -0.4835384781
C 1.9543012352 0.0350996506 0.3678140374
C 3.2449413221 -0.2191109811 -0.0832816172
C 3.6349540057 0.1094784702 -1.3814286027
C 2.7037756334 0.6960510763 -2.2314852602
C 1.4078311830 0.9461645815 -1.7949194913
C 4.2180519470 -0.9036067706 0.8290529111
F 5.5027666206 -0.5611688167 0.5657151835
F 3.9931545346 -0.6225305961 2.1349618185
F 4.1519351894 -2.2606558116 0.7117602960
H -1.9847830043 4.6895706208 -0.1407285191
H -1.3853955725 4.9227228587 -1.8018956369
H -2.7759708154 3.8576072770 -1.5021012069
H 0.0612383193 3.2054425741 -1.3105059164
H -2.6386697813 0.9589353743 2.0721261154
H -3.3305080289 0.4075996958 -1.5578888647
H -5.0894280440 -1.1142593988 -2.3955483974
H -6.3370245355 -2.5674164654 -0.8167118907
H -5.8221787001 -2.4790181385 1.6104147827
H -4.0775008775 -0.9363248416 2.4523506986
H 4.6442719274 -0.0905022649 -1.7228579954
H 2.9867561142 0.9473748526 -3.2484355246
H 0.6857647606 1.3603795652 -2.4921937004
H 1.6683417734 -0.2176978950 1.3814506896
