34
CONF40
C -1.8917369925 -0.5725378190 1.6768188098
C -1.0441249147 -0.0846796494 0.6908674871
C 0.3478843051 -0.1936243661 0.7751664660
C 0.8556530355 -0.8340578432 1.9104108067
C 0.0425744303 -1.3336819363 2.9222192485
C -1.3306020648 -1.1916210070 2.7850742820
Cl -2.3759725280 -1.8148415921 4.0506172383
Cl 2.5908644497 -1.0583860230 2.1092879167
C 1.2412266026 0.3047101076 -0.3374941893
C 0.7756813742 1.6288531903 -0.9600274886
N 0.6390192231 2.6638825533 0.0543989017
C -0.4626176594 3.3392340610 0.4329548972
N -0.1743830685 4.1672883510 1.4315024754
C 1.1541638658 3.9428514522 1.6293642700
N 1.6924903743 3.0380159181 0.8202157477
C 1.4288908712 -0.7559257399 -1.4177202639
O 0.1309858954 -1.0296829130 -2.0369018309
C -0.2199000390 -2.3140739882 -2.1591361502
C -1.6148419770 -2.4406895814 -2.7962848338
F -2.5199241318 -1.7885476231 -2.0108174692
F -1.6005114454 -1.8316664897 -4.0166209265
F 0.6663257823 -3.0297485960 -2.9362812240
F -0.2504784835 -2.9773028882 -0.9509754452
H -2.9663091274 -0.4727950774 1.5799340919
H -1.4898545935 0.3877292809 -0.1768514178
H 0.4722225876 -1.8206475380 3.7888433040
H 2.2428898106 0.4809802732 0.0665612355
H -0.1899702244 1.5390613419 -1.4627586086
H 1.5146404840 1.9526403229 -1.7003170705
H -1.4262360512 3.2000142488 -0.0399326273
H 1.7418243453 4.4549086909 2.3811171410
H 2.0919585890 -0.3955158980 -2.2092431590
H 1.8392333608 -1.6710198604 -0.9847485154
H -1.9110657786 -3.4891234739 -2.9092427082
