27
CONF42
C -3.1537181113 0.3199248935 0.8235261817
C -3.7418207873 -0.0228078306 -0.5467429703
O -3.8608081020 -1.4229490819 -0.7935731169
C -1.7710525218 -0.2081617089 1.1331626081
C -0.6671759094 0.1562187407 0.0904542807
C 0.8049255267 0.0299042317 0.6153552328
C 1.8726829395 -0.0435308153 -0.5332816431
C 3.3242702175 0.2948353222 -0.0481510894
C 4.4493459722 -0.1853137501 -1.0236097680
F 4.5779070212 -1.5157705813 -0.9889383552
F 5.6108550304 0.3655643232 -0.6464007138
F 4.1746614367 0.1979535788 -2.2783513347
F 3.5486899721 -0.2888283586 1.1520975259
F 3.4402101036 1.6338270253 0.0823684106
F 1.8699285071 -1.2936909969 -1.0507265609
F 1.5404110896 0.8342627025 -1.5077091552
F 1.0867629021 1.1060387875 1.3878766228
F 0.9165397003 -1.0908780154 1.3640763205
F -0.8053905231 -0.6552292487 -0.9908378888
F -0.8582701874 1.4401180856 -0.3067128716
F -1.7716910258 -1.5682775483 1.2713184672
F -1.3593626161 0.3084124226 2.3436457387
H -3.1232147469 1.4089542541 0.9302301836
H -3.7989358462 -0.0707371400 1.6197189161
H -4.7195539380 0.4735091700 -0.6098383700
H -3.1207029051 0.3768578526 -1.3525637508
H -4.4654936010 -1.7908299219 -0.1363927940
