73
CONF153
C -2.8570788760 1.1222382453 -3.2471225386
C -2.7514357639 0.5190677760 -1.8381414090
C -4.0473388321 0.7508782609 -1.1072222376
C -4.8743076940 -0.2119992916 -0.6957735787
C -6.1907353884 -0.0400004345 0.0134449848
C -6.6371616772 1.4167512076 0.1360400893
C -6.2126365947 -0.7652281070 1.3907688284
C -5.1883552325 -0.1997829955 2.3759309714
C -6.0300288310 -2.2785016301 1.2468969772
C -1.5876176532 1.0980047665 -1.0082550852
C -1.5353538384 0.4642463703 0.4142221575
C -0.0457189684 0.3971249346 0.8300978882
C 0.6584591158 1.2429581570 -0.2267950942
C -0.1359220313 0.9464552122 -1.5405827854
C 0.3097910968 1.9755622013 -2.5887109460
C 1.8300731975 1.9565955944 -2.7963734864
C 2.6108993708 2.1274262175 -1.4786588199
C 2.1400375503 1.1578899670 -0.4257932272
C 2.9227616065 0.2869422853 0.2492619906
C 4.3543577924 0.1435045990 0.1284573218
C 5.1235256968 -0.7962189569 0.7295282962
C 6.6268468284 -0.7788611183 0.5825061909
C 7.3431533383 -0.8681607300 1.9286753673
C 6.8451953776 -2.0714241975 2.7273818724
C 5.3226490561 -2.0378883406 2.9081400543
C 4.6097059631 -1.8855191558 1.5844449336
C 3.6256397921 -2.7121531654 1.2065365895
O 7.0886611885 0.3699955677 2.6207028519
C 0.1228473272 -0.4850067068 -2.0284483838
H -3.7669366096 0.7669085317 -3.7417362274
H -2.0056196659 0.8439581614 -3.8723831617
H -2.9026992328 2.2165895856 -3.1981069955
H -2.6047100078 -0.5661692294 -1.9289167109
H -4.2991091842 1.7993929604 -0.9373885667
H -4.5820764914 -1.2446284907 -0.8943319973
H -6.9451282914 -0.5630667517 -0.5967870785
H -7.6011228305 1.4726342391 0.6520953162
H -5.9184236785 2.0194919611 0.6998120065
H -6.7514091768 1.8755167916 -0.8513155830
H -7.2167685316 -0.5897438913 1.8027387207
H -5.3282151154 0.8718970038 2.5467374580
H -4.1697829913 -0.3523675347 2.0011018501
H -5.2705428194 -0.7062570068 3.3435555918
H -5.0099118212 -2.5280383424 0.9352617881
H -6.2117175035 -2.7773272480 2.2047232365
H -6.7237709797 -2.6964922290 0.5089168577
H -1.7688747115 2.1791109488 -0.9049499377
H -1.9841746717 -0.5350611714 0.3941284392
H -2.1287845495 1.0540041567 1.1189593675
H 0.1304770073 0.7723356378 1.8430318663
H 0.3124518835 -0.6372492597 0.8017051324
H 0.4332397153 2.3006957369 -0.0027035805
H -0.1814549589 1.8004272362 -3.5504992696
H 0.0037893476 2.9748836729 -2.2469611800
H 2.1154200675 2.7569355627 -3.4888396077
H 2.1288844240 1.0134623318 -3.2692939894
H 2.4305003401 3.1473969256 -1.1057820597
H 3.6824993735 2.0401604248 -1.6726628098
H 2.4393519161 -0.3696630370 0.9678095759
H 4.8814762432 0.8818601021 -0.4730357673
H 6.9508947574 0.1195075254 0.0468926255
H 6.9462103186 -1.6499681358 -0.0076668828
H 8.4243020253 -0.9698319707 1.7502720965
H 7.1378113986 -2.9840629592 2.1923363728
H 7.3416676608 -2.0966717413 3.7052445222
H 5.0665495455 -1.1783196423 3.5420960140
H 4.9760206167 -2.9406793438 3.4203015839
H 3.2910428619 -3.5168612059 1.8561597730
H 3.1411159054 -2.6099451844 0.2400174915
H 7.5316745153 0.3211022783 3.4773937729
H -0.2966927002 -1.2271920400 -1.3426257226
H 1.1941440837 -0.6878164256 -2.1159823218
H -0.3325107936 -0.6457556566 -3.0114353613
