56
CONF4
C 2.6649336405 -1.2168207807 2.2348173999
C 2.4695495546 -1.3092328505 0.7164660699
C 1.2277420824 -0.5431834159 0.2184836506
C -0.0699239286 -0.9913540145 0.8885358999
C -1.2189778010 -0.1695545041 0.3257097436
C -2.6115316849 -0.6781650553 0.7291169059
C -3.7351546613 0.2898488773 0.3068290485
O -4.9063184569 -0.0994212160 0.3913043950
C -3.3729082616 1.5759544907 -0.2609909688
C -2.0737451523 2.0753215152 -0.1460011880
C -1.0806274486 1.3036912767 0.7205525860
C 0.3516833962 1.7850253772 0.6209631635
O 0.4928589462 3.0739893667 0.8918273228
C 1.4144929819 0.9486823429 0.3792866727
C 2.7318301999 1.5238935378 0.2827930724
C 3.8505537314 0.6583310634 -0.0505765443
C 3.7107572005 -0.7446909583 0.0362370873
C 4.7365505525 -1.5672173314 -0.3921445420
C 5.9158100960 -1.0054781371 -0.8936413859
C 6.0945141182 0.3642813295 -0.9496863541
C 5.0710784629 1.2126750530 -0.5164994092
O 5.2772371890 2.5351103028 -0.5798904668
O 2.9149561773 2.7787233025 0.4329644759
O -1.4799828667 1.4404482553 2.0998316692
O -1.7117367900 3.1807390324 -0.7053804078
C -4.3312239696 2.4328798342 -0.9603195114
O -3.9378811994 3.5112838463 -1.5044793490
N -5.6138750465 2.0660484707 -1.0232638521
N -2.8155362167 -2.0360645169 0.2269818700
C -3.2034794470 -2.1213493097 -1.1780971680
C -3.6702297335 -2.8748532244 1.0636112328
O 2.2513333030 -2.6719544478 0.3339061330
H 2.7092964462 -0.1749612837 2.5638343431
H 3.6111996058 -1.6934210677 2.5132530465
H 1.8447868928 -1.7160931966 2.7576993497
H 1.1581324689 -0.7906356214 -0.8538841087
H -0.0195343138 -0.8327763592 1.9723021042
H -0.2503653292 -2.0505083864 0.6966821876
H -1.1487192573 -0.1966709801 -0.7719225903
H -2.6472612390 -0.7215146823 1.8247158340
H 4.6197632025 -2.6431834740 -0.3504334096
H 6.7129165132 -1.6581849756 -1.2365511739
H 7.0122141577 0.8068674158 -1.3201414339
H 4.4745787578 2.9640249748 -0.1932770957
H 1.4862629183 3.2580781227 0.7878565952
H -1.2971950398 2.3535529665 2.3604971198
H -2.6475489701 3.5245546679 -1.1898787494
H -5.8848246011 1.2128803005 -0.5401603344
H -6.2639865378 2.6642446999 -1.5052145562
H -4.2557813357 -1.8398760798 -1.3565431372
H -2.5672392381 -1.4753253977 -1.7922196532
H -3.0595140736 -3.1505347785 -1.5247691370
H -4.7316687966 -2.5830001415 1.0330594349
H -3.5835198621 -3.9142923687 0.7248754020
H -3.3262107016 -2.8302338319 2.1023865897
H 2.7114696556 -3.2405773313 0.9604863243
