40
CONF1
C 2.6511523854 -3.2055298058 -0.9706444749
O 3.8013204516 -2.7429567377 -0.2230684773
C 3.8787897929 -1.4380837935 0.0560052185
C 4.9786676502 -0.9888650678 0.7746640408
C 5.0047159092 0.3793903612 1.0385354284
N 4.0478553139 1.2241991438 0.6399881430
C 3.0446681690 0.6693105889 -0.0417030228
N 2.9040843957 -0.6183339730 -0.3615363165
N 2.0552882565 1.5652776390 -0.4361409820
C 0.8663758056 1.3662703546 -1.1227818490
O 0.0624736342 2.2773599061 -1.2694262675
N 0.6744981494 0.0943327444 -1.6257493548
S -0.8543341335 -0.3958245166 -2.1787564882
O -1.2049990855 0.3673078504 -3.3782525189
O -0.7328449893 -1.8545270911 -2.2422168701
C -1.9570882984 0.0478595542 -0.8967084695
C -2.0346397894 -0.4663480774 0.3962208203
N -2.9609050338 0.1352641140 1.1424098805
C -3.4994265181 1.0744983342 0.3399088158
N -2.9036809613 1.0699875765 -0.9275246536
C -3.2678535951 1.9589684995 -1.9018432965
C -4.2562490336 2.8627086222 -1.6264931151
C -4.8903412022 2.8843482030 -0.3672775035
C -4.5157560945 1.9960556594 0.6131073758
Cl -1.0372015227 -1.7165489566 1.0371178750
O 6.0506234222 0.8483162830 1.7284591674
C 6.0917003595 2.2676653568 2.0082038329
H 2.7967793576 -4.2802336611 -1.0716025480
H 2.6188970074 -2.7329067566 -1.9562782493
H 1.7276946133 -2.9972766558 -0.4229787583
H 5.7621926177 -1.6561687771 1.1067065999
H 2.1913083556 2.5188510513 -0.1264638877
H -2.7452811714 1.8935227039 -2.8443518693
H -4.5403901344 3.5644705031 -2.4009015305
H -5.6742960054 3.6075357113 -0.1730086326
H -4.9732061214 1.9830652868 1.5950996931
H 5.2278673520 2.5652970196 2.6073334648
H 7.0139961122 2.4140179094 2.5692606090
H 6.1144554198 2.8406638913 1.0781483200
H 1.3273167959 -0.6389390312 -1.3027427024
