111
CONF35
C 2.8674228960 -0.8728558474 1.8769257911
N 1.8523640393 -1.5760260669 2.6721199188
C 2.2187934698 -2.6703834473 3.5438157430
C 0.6747756455 -1.6063451805 1.9409512493
C -0.4387799216 -2.4200636908 2.1239737187
C -1.5463950517 -2.2015075196 1.2971297816
O -2.6841192292 -2.9603936594 1.3812247863
C -2.6872729846 -4.0780962563 2.2598702019
C -1.5654327060 -1.1945084854 0.3154896625
C -0.4088406001 -0.4247783686 0.1490981440
C 0.7001823657 -0.6328447688 0.9409198692
C 2.0001152582 0.1282547726 1.0528112873
C 1.7907677574 1.4531894641 1.8772012847
C 2.2018439387 2.5704491210 0.9191127366
N 3.2117330623 1.9240195170 0.0898866395
C 3.6120057053 2.6972062196 -1.0709409056
C 4.4409040130 1.8616044169 -1.9966678359
C 4.4285750715 0.5328149344 -1.9585687445
C 3.5381381577 -0.2822708868 -1.0513364648
C 2.7109022149 -1.2614006016 -1.9376587807
C 2.0742597561 -0.6295302993 -3.1746345110
C 4.4641551393 -1.0774676673 -0.1012092334
O 5.3494712336 -0.1246756653 0.5280616937
C 6.6636312188 -0.4320998397 0.6082439686
C 7.4121908329 0.7004070223 1.2493068005
O 7.1498550864 -1.4716925759 0.2231805854
C 3.7169680106 -1.8561084018 1.0210556222
O 2.8870941027 -2.8385058641 0.4408965174
C 4.7752121587 -2.6135330565 1.8452687892
O 4.9941359315 -3.7928166979 1.6616973361
O 5.4267694277 -1.8615638688 2.7415447574
C 6.5194369274 -2.5379309567 3.4135719182
C 2.5906253085 0.6476352069 -0.2772843280
C -2.8452242794 -0.9506385270 -0.4923933644
C -3.9853797779 -0.4245331578 0.4125479733
C -3.6583196020 0.7705698937 1.3469588949
C -2.8329710297 1.9272840408 0.7610704312
N -3.5793660715 2.8006534078 -0.1406184164
C -4.6607366278 3.4445489107 0.6063340868
C -5.4423408735 2.5205852845 1.5210432009
C -6.7619401424 3.0339503233 2.0276398795
C -6.6418739839 4.3271873198 2.8458606177
C -4.9616850029 1.3200000907 1.8628776567
C -4.1149395677 2.0906344713 -1.3228351278
C -3.1143949309 1.2206242578 -2.0179290652
C -2.6132881437 -0.0276865466 -1.6776734310
N -1.7331527821 -0.4388135484 -2.6648159622
C -1.6472151625 0.5118030829 -3.6483260373
C -0.9192896584 0.5254769183 -4.8370109917
C -1.0298302337 1.6512500334 -5.6395562855
C -1.8466463066 2.7334361098 -5.2678722938
C -2.5782463791 2.7090051770 -4.0913115534
C -2.4922616741 1.5831774881 -3.2611491671
C -3.2401786749 -2.2944393038 -1.1551983476
O -2.4478902610 -3.0359607789 -1.6955248347
O -4.5661390807 -2.5123159831 -1.1460200970
C -4.9831817432 -3.7178574844 -1.8204276653
H 3.5624089190 -0.3315661524 2.5235437492
H 3.1168859373 -2.4011827128 4.1079782681
H 2.4037752540 -3.6112963869 3.0008334992
H 1.4178405059 -2.8425626225 4.2712090689
H -0.4386552274 -3.2068822860 2.8657835099
H -2.5814851349 -3.7651236096 3.3069443704
H -3.6576244701 -4.5589604125 2.1254030189
H -1.8884677353 -4.7856999153 2.0039838892
H -0.3931662661 0.3428358515 -0.6181156783
H 2.4342574738 1.4535428953 2.7613656220
H 0.7551695317 1.5488396287 2.2105168549
H 2.6107588925 3.4505919219 1.4283877355
H 1.3315467452 2.9004180350 0.3132467994
H 4.1866263612 3.5724628112 -0.7382181727
H 2.7318996829 3.0943974397 -1.6267162561
H 5.0596063769 2.3834064499 -2.7223291552
H 5.0577008902 -0.0390875071 -2.6404683801
H 1.9324154544 -1.7169223727 -1.3245406151
H 3.3711609981 -2.0790113748 -2.2530273202
H 1.5025571317 -1.3947033855 -3.7099185472
H 1.3798200247 0.1775871991 -2.9225054287
H 2.8163514072 -0.2208345731 -3.8656256746
H 5.0583952436 -1.7954602863 -0.6787010137
H 7.2449470894 1.6193914945 0.6808146891
H 7.0204228563 0.8684577325 2.2569374325
H 8.4745815707 0.4640797973 1.2899775230
H 3.3978518065 -3.6654655443 0.4607137902
H 7.2602906182 -2.8514932584 2.6744298338
H 6.1457372880 -3.4087073989 3.9572967211
H 6.9359810081 -1.7997888402 4.0983818605
H 1.7262617826 0.8511726389 -0.9430648554
H -4.8426366274 -0.1888380398 -0.2177632586
H -4.3046985919 -1.2507713314 1.0508216897
H -3.0812425630 0.3632778775 2.1904776551
H -1.9436195778 1.5603935941 0.2503152600
H -2.4860094181 2.5495611237 1.5970978616
H -4.2323713926 4.2644959132 1.2048480979
H -5.3494927999 3.9221127359 -0.1061795313
H -7.4270490194 3.2180761936 1.1710070059
H -7.2397819895 2.2579539936 2.6367695378
H -7.6186813811 4.6338703681 3.2318006784
H -5.9673600400 4.1830734037 3.6959580965
H -6.2513623126 5.1520497491 2.2423200344
H -5.5593536033 0.6710146466 2.5043267585
H -4.4375587583 2.8590568083 -2.0365004205
H -5.0222936216 1.5161206285 -1.0742918389
H -1.3005085832 -1.3504295815 -2.6635712824
H -0.2891041869 -0.3090404748 -5.1250604234
H -0.4754570444 1.6968095806 -6.5713020282
H -1.9043558005 3.6009285882 -5.9172732682
H -3.2031431553 3.5531449533 -3.8168834273
H -6.0677036246 -3.7472602699 -1.7168493278
H -4.6941427621 -3.6825604649 -2.8739299062
H -4.5229233778 -4.5915983903 -1.3516644038
