46
CONF15
C -1.4234125670 3.3431374205 -2.6728552845
C -1.2761337936 2.4869439992 -1.4277434238
C -2.5216702419 1.6452318522 -1.1457549122
O -3.0907493586 0.8710202515 -1.8751131568
N -2.8641788419 1.9535637541 0.1624432472
C -2.0680534313 2.9823821202 0.7026664312
O -2.1374805981 3.4650568810 1.7920795423
O -1.1888385545 3.3615767633 -0.2637459096
N -3.8196507120 1.2941246547 0.9043373707
C -3.5070190608 -0.0330914061 1.2883800332
C -4.5592707204 -0.8884926896 1.6234194538
C -4.2901022593 -2.1750223995 2.0684837113
C -2.9769569314 -2.6252327609 2.1821582527
C -1.9354121073 -1.7672573573 1.8471464597
C -2.1886328456 -0.4737054483 1.4031735599
C -0.0713721183 1.5602530690 -1.4571317650
C -0.0017996738 0.5558900091 -2.4269398199
C 1.0719471210 -0.3204302259 -2.4584924116
C 2.0903829624 -0.1965560526 -1.5166461119
C 2.0395253445 0.8025479438 -0.5483665579
C 0.9552307117 1.6725583997 -0.5197526045
O 3.1554183764 -1.0584138228 -1.6442670381
C 3.8340102293 -1.4680822451 -0.5088902191
C 5.2207945267 -1.5187248885 -0.5839400756
C 5.9421353770 -2.0001481318 0.5039614367
C 5.2843783962 -2.4188677104 1.6567680940
C 3.8937774418 -2.3638589422 1.7149671271
C 3.1589297767 -1.8936265718 0.6324356736
H -2.2956821226 3.9967406276 -2.5869226740
H -0.5242918333 3.9491182917 -2.8052937447
H -1.5507888819 2.6971337156 -3.5439725528
H -4.7356243221 1.3902814042 0.4826410028
H -5.5858276734 -0.5432550141 1.5370706225
H -5.1155078988 -2.8319851995 2.3230289473
H -2.7702501500 -3.6324114100 2.5264219561
H -0.9066536764 -2.1028135225 1.9310447228
H -1.3607498857 0.1801884112 1.1502947708
H -0.8083906780 0.4348052871 -3.1420115855
H 1.1313262129 -1.1088341021 -3.2003748339
H 2.8400994564 0.9006646988 0.1762643126
H 0.9188264078 2.4512289479 0.2328651170
H 5.7135873045 -1.1861676734 -1.4908491847
H 7.0251086587 -2.0423150981 0.4492356897
H 5.8506531426 -2.7895693539 2.5041896863
H 3.3731209847 -2.6985340286 2.6064844975
H 2.0752463209 -1.8570521726 0.6647024402
