28
CONF1
C 1.3918235466 0.7109334044 0.5639663065
N 0.2105011544 1.5546114552 0.4929910707
C -1.1451765638 1.0451400773 0.6189435488
N -1.5076580956 0.0125179014 -0.3462719437
C -1.4624491871 -1.4109971251 -0.0157718259
N -0.2256552731 -1.8094471512 0.6350503392
C 1.0379949792 -1.7401308891 -0.0781399157
N 1.4361906185 -0.3730361098 -0.4119669443
N 1.6136118346 -0.0297833768 -1.7628424866
O 1.5648445612 -0.9363559549 -2.5810351740
O 1.8270599789 1.1485977990 -1.9832713543
N -0.1903927985 -1.8115324679 2.0507032983
O 0.9007970144 -1.9667686762 2.5750744111
O -1.2577871143 -1.6863246945 2.6293429375
N -1.6249673420 0.3920976754 -1.6943694175
O -1.8223382507 -0.4958172140 -2.5106024050
O -1.5381214705 1.5865099075 -1.9142967444
N 0.3863105755 2.9373376395 0.1929480104
O -0.6222216922 3.6129460878 0.1294562933
O 1.5319329560 3.3290809679 0.0846580973
H 1.4502204011 0.2253037312 1.5459043522
H 2.2585645647 1.3613908768 0.4403744141
H -1.8181235523 1.8982616262 0.5250472482
H -1.2865565497 0.5880848419 1.6061381234
H -1.5545359914 -1.9624469587 -0.9541517840
H -2.2908592372 -1.6748045817 0.6440275100
H 1.8005370300 -2.2204293881 0.5378089031
H 0.9364535030 -2.2849393035 -1.0197148688
