41
CONF158
C 4.4613480491 -1.0840774565 0.3168512039
C 5.1656677514 -0.5309489564 1.5385914482
O 4.2108779112 0.0102748961 2.4922721559
C 3.7753025776 1.2759912576 2.2441682207
O 4.1886885961 1.9808420594 1.3349599761
N 2.8598583603 1.6437287167 3.1782479981
C 2.0418972951 2.8350057503 3.0242531495
C 0.6677444483 2.5305172203 2.4539978136
O 0.8577525839 1.9948390697 1.1383076987
C -0.2415738845 1.5571266026 0.4592923056
C 0.0136711757 0.9734753928 -0.7884903252
C -1.0329348698 0.4999020894 -1.5632014729
C -2.3386268388 0.6026625671 -1.0882616072
C -2.6023273518 1.1788831740 0.1429966204
C -1.5535713170 1.6658011178 0.9249494688
O -3.4063900234 0.1891261075 -1.8820374282
C -3.6160708757 -1.1646711404 -2.0386367608
C -4.5479320080 -1.5269154263 -3.0125868287
C -4.8386513810 -2.8706806347 -3.2140098794
C -4.2055441601 -3.8554874458 -2.4550935607
C -3.2790367439 -3.4789499363 -1.4869393494
C -2.9767843344 -2.1356603993 -1.2686105021
H 5.1979548441 -1.5407001767 -0.3519139737
H 3.9452402647 -0.2901166643 -0.2294708130
H 3.7346507296 -1.8498340522 0.6036225184
H 5.8861227338 0.2474884309 1.2737901034
H 5.6769770742 -1.3204794360 2.0941705001
H 2.5356976541 0.9256059501 3.8097425936
H 2.5751100484 3.5309161797 2.3718800947
H 1.9070934841 3.3161517979 3.9994749084
H 0.1427340545 1.7979845361 3.0831662711
H 0.0727690048 3.4533739942 2.4105271112
H 1.0391776400 0.9051943155 -1.1368516248
H -0.8443882039 0.0484042983 -2.5321649930
H -3.6268608017 1.2524502650 0.4930261128
H -1.7779346019 2.1222364815 1.8810070554
H -5.0321335124 -0.7514177453 -3.5971517034
H -5.5635545255 -3.1492166473 -3.9727790435
H -4.4332730479 -4.9036696768 -2.6174674723
H -2.7819121340 -4.2347907464 -0.8864801211
H -2.2568346708 -1.8503656344 -0.5099893651
