37
CONF3
C -3.2953649133 -1.9655627387 0.1965725180
C -4.2443963322 -1.8148777877 -0.8077166839
C -4.3424822271 -0.6089357848 -1.4948014801
C -3.4822053729 0.4443178700 -1.1915150646
C -2.5160279614 0.2964479678 -0.1851793641
C -2.4402360070 -0.9127439645 0.5082052192
C -1.4839702105 1.3504786206 0.1125982885
O -0.6969254552 1.7336185213 -0.7551354666
N -1.4767628980 1.7929583438 1.3889548061
C -0.4544468014 2.6923125680 1.9019725422
C 0.7311314594 1.9328665102 2.5367391633
C 1.3899309289 1.0223048628 1.5471771671
C 2.3437557382 1.4609474183 0.6181252716
C 2.8698766019 0.5953704973 -0.3249163493
C 2.4153035674 -0.7174070694 -0.3186023238
C 1.4715499598 -1.1003767366 0.6294940555
N 0.9821228784 -0.2566722553 1.5376581645
C 2.8967866119 -1.7084501302 -1.3352773203
F 3.0985642099 -2.9310421238 -0.7874183212
F 1.9916481848 -1.8777374857 -2.3351273787
F 4.0567525721 -1.3295669737 -1.9144736750
Cl 2.8778647520 3.1289757409 0.6107146429
C -3.6285073348 1.7345108820 -1.9529382387
F -3.4106020671 2.8227928141 -1.1740855397
F -2.7725839398 1.8191196413 -3.0031694140
F -4.8749637808 1.8747347528 -2.4682406502
H -3.2161773351 -2.9021981599 0.7387136631
H -4.9162514621 -2.6296833902 -1.0552704906
H -5.0969753594 -0.4855610768 -2.2631224094
H -0.9072782965 3.3384866834 2.6591662730
H -0.1089553852 3.3181317996 1.0752800836
H 0.3654187441 1.3280007514 3.3706940510
H 3.6051803366 0.9372310640 -1.0435707553
H 1.1009494014 -2.1227027915 0.6617201972
H -1.6877063770 -1.0299184634 1.2820625726
H 1.4387769410 2.6709300960 2.9248100745
H -2.1385176006 1.3957556469 2.0395348866
