46
CONF3
C -1.2334165943 0.1106033372 0.9525302829
C -2.0458829950 -0.5046811230 2.1025686161
C -3.5233091646 -0.3231201345 1.6667455542
C -3.4868052380 0.2899218769 0.2253088186
O -4.5163128202 -0.2265861822 -0.6291670382
C -3.6123535055 1.7458378887 0.3006263488
C -3.7969279560 2.9345867238 0.3825127053
C -2.0881194334 -0.1537271065 -0.3017719137
C -2.1726265256 -1.6425130060 -0.6732267744
C -1.5173382248 0.6488075034 -1.4696609299
C -0.0308744143 0.3276412119 -1.6931975490
C 0.8091357464 0.5057246224 -0.4155233827
C 2.2896350350 0.2041375924 -0.6032012770
C 3.0662565778 -0.3165480017 0.4479459609
C 2.4652506937 -0.6599748390 1.7925966324
C 1.0791384364 -0.0617739072 2.0043084136
C 0.2199847636 -0.2944411826 0.7653555436
C 4.4285062848 -0.5514400370 0.2620452776
C 5.0433227034 -0.2751258136 -0.9519511388
O 6.3853647575 -0.5325313461 -1.0567673408
C 4.2910606515 0.2478725975 -2.0006532574
C 2.9346324341 0.4797000683 -1.8130664150
H -1.2402414776 1.2032629500 1.0996303793
H -1.8018301528 -1.5664225962 2.2220086788
H -1.8367070624 -0.0169872017 3.0582710095
H -4.0523688560 -1.2775377263 1.6017395649
H -4.0846425842 0.3220568422 2.3464206305
H -5.3258759868 0.2593217065 -0.4346895117
H -3.9302846581 3.9871558420 0.4532147846
H -2.8244377734 -1.7677738309 -1.5406852103
H -1.1894684905 -2.0422131893 -0.9274471515
H -2.5799704426 -2.2534653391 0.1356414689
H -1.6197314819 1.7186356598 -1.2484809239
H -2.0875358785 0.4544133749 -2.3857387756
H 0.3389515482 0.9915849817 -2.4804845630
H 0.0990015265 -0.6947080615 -2.0694434769
H 0.7231630877 1.5689661854 -0.1284732151
H 2.3969203993 -1.7546821600 1.8701521944
H 3.1512722826 -0.3431445604 2.5865764101
H 1.1526983001 1.0187284369 2.1920992448
H 0.6148459128 -0.5107422797 2.8895453750
H 0.2697536034 -1.3676029880 0.5220044826
H 5.0295053969 -0.9549910585 1.0719707782
H 6.6798686420 -0.2920599622 -1.9421649428
H 4.7576790019 0.4742442599 -2.9564267587
H 2.3711130363 0.8915898654 -2.6425749121
