50
CONF39
C 2.3955412937 -2.8388084842 -1.2551473771
C 2.2895107209 -1.4516555780 -0.6683797616
C 1.2279962961 -0.6364504339 -1.0690822496
C 1.0442541144 0.6196379674 -0.4651280374
C 1.8519461613 1.0521349617 0.5592757011
C 2.9357308636 0.2635820947 0.9922534862
C 3.2020875127 -0.9666231120 0.3143192940
C 4.4587089857 -1.5747134304 0.6983602279
N 5.1477810197 -1.1529213567 1.7525651486
C 4.6890462942 -0.0609025806 2.4109657909
N 3.6790653056 0.7137894486 2.0440732501
N 5.3555570063 0.2528108077 3.5669775090
N 5.0262365158 -2.5954562185 0.0020707913
C 0.2824895369 -1.0969375540 -2.1761250971
N -0.7565196314 -0.1653892197 -2.5617504389
C -1.8446291350 0.1200089096 -1.7499722632
C -2.6771338101 1.1971567864 -2.1001510419
C -3.8017561968 1.4804855665 -1.3284084879
C -4.1207018039 0.6985744630 -0.2067185542
C -3.2730716168 -0.3601339193 0.1404800227
C -2.1397382497 -0.6575695604 -0.6212753221
O -3.6343032387 -1.0513729466 1.2588361360
C -2.7904575958 -2.1325704422 1.6708199281
O -5.2568854153 0.9589126214 0.5306094995
C -5.0281616208 1.9037667684 1.5934916060
O -4.6664688494 2.5020865007 -1.5850576207
C -4.3887409377 3.3344720446 -2.7164691130
H 2.9777995657 -2.8513384898 -2.1870037156
H 2.8474958706 -3.5423703878 -0.5557788624
H 1.4074635964 -3.2275472484 -1.5055414559
H 0.2247813544 1.2494748206 -0.7944646809
H 5.2210374655 1.1874863089 3.9199208929
H 6.2829638643 -0.1284689741 3.6693267867
H 4.7746168159 -2.7468319931 -0.9591339658
H 5.9834463581 -2.8042270237 0.2447335723
H 0.8685798684 -1.3198434335 -3.0762664593
H -0.1928627278 -2.0451997351 -1.8950078138
H -0.4555504240 0.5948713238 -3.1528265729
H -2.4347332441 1.7892904676 -2.9743748041
H -1.4813308517 -1.4619864005 -0.3267284244
H -3.2499584108 -2.5358599021 2.5738433267
H -1.7779669487 -1.7787644001 1.8994485130
H -2.7444315901 -2.9130036683 0.9020364649
H -5.9831628440 2.0353340381 2.1071736682
H -4.2806867690 1.5183254692 2.2974725450
H -4.6915940342 2.8657763581 1.1886344439
H -5.1859196329 4.0782706679 -2.7367205732
H -3.4197052842 3.8363354918 -2.6094751441
H -4.4036659732 2.7540988559 -3.6466099763
H 1.6701226046 1.9983979838 1.0584946881
