21
CONF1
C -3.1841258722 -0.3951482062 -0.7749469522
C -2.2638333742 -0.8810640445 0.1447864767
C -0.9056231546 -0.5841889960 0.0334515130
C -0.4718750891 0.2082558329 -1.0287872224
C -1.3898786599 0.7052570456 -1.9581991872
C -2.7367006571 0.4034922225 -1.8268926278
O 0.8332954189 0.5632050533 -1.2591548680
C 1.8666063374 -0.0274656809 -0.4733602745
C 2.0487868239 0.6205105666 0.8748260954
C 2.9329596058 0.0010163448 1.8651019132
O 1.5093430450 -0.0498007935 2.0265413925
H -4.2379411140 -0.6307683965 -0.6743285153
H -2.5979664786 -1.4956428267 0.9749353740
H -0.2141851272 -0.9489465331 0.7822651145
H -1.0246927696 1.3188851401 -2.7745933924
H -3.4425628332 0.7923312669 -2.5541557574
H 1.7138784237 -1.1098374749 -0.3547868542
H 2.7764397486 0.1340346533 -1.0624571448
H 1.9223831088 1.7044653177 0.8864005379
H 3.4620583787 0.6266047047 2.5827639803
H 3.4036348528 -0.9551952012 1.6327801043
