31
CONF37
F 1.1725965596 -1.6402803396 0.3420296241
C 1.5965106308 -0.6763215355 -0.5018254820
F 1.7061758743 0.4871029448 0.1851808357
C 0.5930406358 -0.4985381877 -1.6731494345
F 0.8884873832 0.6374583378 -2.3333040221
F 0.7525271491 -1.5510659419 -2.5122743180
C -0.9420021324 -0.4793054292 -1.3099857620
F -1.2906687380 -1.7076574898 -0.8748410630
F -1.5965460545 -0.2230079907 -2.4692135506
C -1.3948073465 0.5786236659 -0.2524866699
F -1.0016476249 0.1500144597 0.9726170566
F -0.7936722965 1.7598921584 -0.5146405833
C -2.9442178238 0.8165416466 -0.2310906909
F -3.2755724975 1.6077061573 -1.2726251157
F -3.5908672317 -0.3654167228 -0.3475793838
C -3.4604563910 1.5078787479 1.0737526349
F -2.7230882664 2.5924037210 1.3530439797
F -3.4140420427 0.6671811637 2.1127223571
F -4.7317323706 1.8849460836 0.8861091091
S 3.3655666099 -1.1577345801 -1.0900576774
O 3.7070995194 -0.2094305785 -2.1451335133
O 3.3492427851 -2.6056749195 -1.2555279780
N 4.3140383674 -0.7952203259 0.2258400028
C 4.1942739340 -1.5659047364 1.4808426828
C 5.4962893892 -1.4660636028 2.2624245546
H 4.4290380184 0.2081342929 0.3334849598
H 3.3515541007 -1.2057818061 2.0866003297
H 3.9920007322 -2.6035756922 1.2022861798
H 5.4137366769 -2.0392734083 3.1900929461
H 5.7218897336 -0.4287797639 2.5303154683
H 6.3298894036 -1.8622341715 1.6774293512
