47
CONF13
C -6.3959487459 -3.1866763473 1.2247458129
O -6.6036672517 -1.7938727380 0.8998608556
P -5.3570370994 -0.8938211754 0.4405363291
S -4.1214174956 -1.6593933393 -0.8306001651
O -6.0992023996 0.4690826316 0.0333337074
C -6.6414298558 0.6138089829 -1.2995212415
O -4.7557910465 -0.4771244954 1.8900557797
C -3.5351247190 0.1964890927 1.9824554213
C -2.3841715652 -0.5356247436 2.2453646103
C -1.1768427782 0.1303367460 2.3951439344
C -1.1203427621 1.5194701643 2.2493728855
C -2.2858422142 2.2381014447 1.9790551012
C -3.5037863800 1.5769248440 1.8568684365
S 0.4007761896 2.4258421522 2.4827283852
C 1.5789987274 1.4538923818 1.5550849977
C 2.8734260230 1.3343634090 2.0651764998
C 3.8482621736 0.6517788052 1.3466068863
C 3.5094224119 0.0723315807 0.1334672382
C 2.2244540548 0.1735042160 -0.3853184699
C 1.2600239021 0.8773671509 0.3227697400
O 4.4632050959 -0.6831874536 -0.5545686042
P 5.4052952422 0.0046223759 -1.6837535306
S 6.2935203885 1.6513248972 -1.2059823090
O 4.3909554994 0.0365136369 -2.9256829108
C 4.7305259894 0.7906007940 -4.1116833855
O 6.3294361419 -1.2487912710 -2.0719925976
C 7.4961176542 -1.5499619559 -1.2746496149
H -5.9209873787 -3.7053053398 0.3868183411
H -7.3875836688 -3.5983501434 1.4150490249
H -5.7767836412 -3.2772392376 2.1229248658
H -5.8661475096 0.4222951789 -2.0468966506
H -7.4803561218 -0.0742288832 -1.4423542563
H -6.9897874464 1.6448276227 -1.3674170898
H -2.4453941192 -1.6142521616 2.3336548278
H -0.2728978070 -0.4282393574 2.6125049791
H -2.2391589203 3.3149455765 1.8563748319
H -4.4191423406 2.1181618372 1.6467130797
H 3.1182314166 1.7723238186 3.0271276569
H 4.8607093271 0.5584070348 1.7216675111
H 1.9941315259 -0.2877261811 -1.3389622434
H 0.2568742139 0.9710627721 -0.0787204475
H 5.5857033515 0.3333394761 -4.6187704410
H 3.8495443021 0.7456369979 -4.7527175560
H 4.9596163439 1.8270717238 -3.8487816793
H 7.1961142396 -1.8784206998 -0.2744576200
H 8.0092419429 -2.3607103502 -1.7928244471
H 8.1442559981 -0.6715012593 -1.2027604832
