46
CONF110
C -2.4322129223 3.4673479842 0.2311852043
C -2.9728636442 2.2367806226 -0.4938637879
C -4.2814118380 1.7387013866 0.1177904648
C -4.8506452280 0.4990556920 -0.5432572255
O -4.0171346412 -0.6699684549 -0.2377470494
C -3.1611000587 -1.1049532768 -1.1683736473
O -2.9731850669 -0.6017123882 -2.2548765059
C -2.4829966758 -2.3932790664 -0.6944815126
C -3.2980481273 -3.5908275294 -1.1584633481
O -1.1896068277 -2.5135628789 -1.2903590029
C -0.2290979178 -1.6080850303 -0.9289820152
C 0.9663536264 -1.6830325070 -1.6525806804
C 2.0092521478 -0.8161640131 -1.3654881261
C 1.8475801999 0.1246683394 -0.3549097766
C 0.6736802615 0.2117287789 0.3709834949
C -0.3767557217 -0.6605852150 0.0863626596
O 2.8705973012 1.0512564883 -0.1052034277
C 3.9075885056 0.6541951431 0.6748048138
C 4.9606305911 1.5693862338 0.8174442514
C 6.0675712635 1.3012432591 1.5852189168
C 6.1380427833 0.0638463381 2.2474491949
C 5.0971316975 -0.8645823630 2.1213343008
C 3.9900656667 -0.5695489717 1.3399756775
C 7.2697558474 -0.2412427191 3.0477496749
N 8.1921248678 -0.4940329720 3.7033129835
F 4.8679550335 2.7499462730 0.1733382755
H -3.1529334909 4.2918452012 0.1960694885
H -2.2329607296 3.2414820705 1.2846852326
H -1.4981241367 3.8148786976 -0.2209136637
H -3.1364764072 2.4658944637 -1.5543168199
H -2.2222146563 1.4387193436 -0.4612776576
H -4.1474393515 1.5421128881 1.1895175937
H -5.0464355471 2.5225540029 0.0361671500
H -5.8296886299 0.2441853219 -0.1319600054
H -4.9213508702 0.6082880245 -1.6284092732
H -2.4051797461 -2.3912356583 0.3989094910
H -3.3782757484 -3.5943520356 -2.2489319638
H -2.8115968913 -4.5118799594 -0.8284526735
H -4.3002563346 -3.5467262099 -0.7252212890
H 1.0611749716 -2.4224489707 -2.4407054527
H 2.9402565953 -0.8628953046 -1.9211713722
H 0.5736222646 0.9549064825 1.1552363550
H -1.2861219292 -0.5837281076 0.6698308046
H 6.8601174413 2.0361476728 1.6675640477
H 5.1559341374 -1.8160224466 2.6370384783
H 3.1846782476 -1.2883047358 1.2450003935
