59
CONF115
C 0.8158854291 1.6362163212 2.5566908731
C 1.7193995552 2.3584366113 3.5973264484
C 3.1273905770 1.7651026549 3.4023338309
C 3.1589023051 1.2974345440 1.9401588973
C 1.7510118501 0.6894002959 1.7764783533
C 4.2826662497 0.3101203150 1.6593624301
C 4.3709846406 -0.1215271143 0.2186607320
O 4.8330515703 -1.2080131078 -0.1016493868
N 3.9149771100 0.7761061540 -0.7530242509
C 3.4254950489 2.0545262488 -0.4635263252
O 3.0850256492 2.8018847045 -1.3704478682
C 3.3584084718 2.4719173828 0.9818321490
C 3.9389404722 0.3691228282 -2.1743622484
C 2.5646962336 -0.0859773747 -2.6636213786
C 2.0884148326 -1.4053513660 -2.0572090987
C 0.6531745342 -1.7388912420 -2.4671085900
N -0.3304249797 -0.8655706787 -1.8078910394
C -1.5780141206 -0.7791993746 -2.5753525545
C -2.5496214721 0.1854318428 -1.8988430838
N -2.8156464802 -0.2455714511 -0.5259460767
C -1.5809195416 -0.3707279800 0.2494814915
C -0.6276663195 -1.3350325726 -0.4497370720
C -3.9516073135 -0.9252398659 -0.1895543613
N -4.9603649149 -0.9480368063 -1.0958752230
C -6.0783397153 -1.5679705025 -0.7232279985
C -6.2367166431 -2.1758701054 0.5168607316
C -5.1393729898 -2.1030005854 1.3671901790
N -4.0009831249 -1.4943074597 1.0406143938
H 0.3522532442 2.3622063101 1.8815778323
H 0.0022698527 1.0816081395 3.0319156599
H 1.7292535777 3.4366472437 3.4101397301
H 1.3645057665 2.2158298235 4.6214978429
H 3.2589009118 0.8856323264 4.0450141851
H 3.9321988901 2.4711112964 3.6327821560
H 1.7497001824 -0.3094831802 2.2293956976
H 1.4575836480 0.5760118740 0.7267185596
H 5.2506005233 0.7664087249 1.9149038365
H 4.1841576088 -0.5991256878 2.2593828584
H 2.5620461226 3.2169349945 1.0561302086
H 4.3038319926 2.9842825366 1.2127501775
H 4.6709949831 -0.4347338992 -2.2666432077
H 4.2815999751 1.2296182191 -2.7525856585
H 1.8304381141 0.7000114159 -2.4574139398
H 2.6214266691 -0.1907486201 -3.7547395340
H 2.1601833027 -1.3676931650 -0.9634000540
H 2.7491955834 -2.2189593681 -2.3812992040
H 0.4338774323 -2.8032891779 -2.2614453463
H 0.5559787848 -1.5990361620 -3.5515052646
H -1.3505672959 -0.4098775653 -3.5820341209
H -2.0659274256 -1.7701146968 -2.6770968067
H -3.4828478699 0.2436525050 -2.4568170053
H -2.0971576035 1.1848278673 -1.8568249493
H -1.8072656565 -0.7160206062 1.2570161064
H 0.3002960166 -1.4032213191 0.1267372799
H -1.0869143394 -2.3446732606 -0.4689079114
H -6.8852287487 -1.5814410446 -1.4555751829
H -7.1529240476 -2.6785171264 0.7997515730
H -5.1725775677 -2.5572151290 2.3572324748
H -1.1163817114 0.6222701626 0.3099965823
