42
CONF51
C 0.8299842515 3.7543517984 0.5651868561
O 1.0951682399 2.3355486987 0.4423561840
C 1.3226872147 1.8993656973 -0.7962712857
C 1.5977927207 0.5957979425 -1.0492250387
C 1.7128491766 -0.4067209310 0.0382832357
C 2.6908232009 -0.2374524408 1.0249683918
C 2.8303908658 -1.1521705291 2.0623977876
C 1.9893634218 -2.2607704170 2.1209088600
C 1.0148907553 -2.4415292632 1.1450527159
C 0.8605541925 -1.5220335588 0.1062480802
C -0.2094723442 -1.7357457811 -0.9333753129
O -1.3666722246 -2.4260036045 -0.4052560213
C -2.1807414375 -1.7372674151 0.4221952612
C -3.2818685236 -2.4394568016 0.9429014807
C -4.1422781670 -1.7627205697 1.7806109366
C -3.8994416541 -0.4173239846 2.0866806660
C -2.7851202929 0.1645704730 1.5152832244
N -1.9291820995 -0.4664685132 0.6983082594
C -2.4075417356 1.5985461503 1.8027876261
F -2.1737565580 2.2972102048 0.6667350188
F -1.2736455127 1.6702965336 2.5470543600
F -3.3717361567 2.2533073108 2.4850621006
C 1.8386342555 0.1513525009 -2.4245592773
O 2.1805379607 -0.9852759744 -2.7208916283
O 1.6488526424 1.1192221236 -3.3524276751
C 1.9116252176 0.7308578796 -4.7201276857
H 1.7164538229 4.3245452897 0.2726648005
H 0.6016204093 3.9255735750 1.6163844158
H -0.0266110439 4.0319411341 -0.0552323779
H 1.2692258801 2.6374441500 -1.5939241219
H 3.3487913523 0.6244464236 0.9685202412
H 3.5951270704 -1.0022313761 2.8181270600
H 2.0916743189 -2.9844800885 2.9236205840
H 0.3532437127 -3.3008776961 1.1962505773
H 0.1471111870 -2.3964509480 -1.7276024155
H -0.5201750659 -0.7853924377 -1.3771934933
H -3.4321236489 -3.4801369929 0.6796551113
H -5.0042153001 -2.2692804688 2.2017451292
H -4.5560932282 0.1387639838 2.7430709179
H 1.7242616041 1.6252334184 -5.3135599589
H 2.9495546871 0.4074686309 -4.8326959681
H 1.2394576582 -0.0760546402 -5.0226649078
