76
CONF627
C 2.9868548671 2.3453438944 -1.0552074620
C 2.9281884273 1.6017084555 0.2841856175
C 4.2787048317 0.9167026862 0.5780044032
C 4.6408104767 -0.2129020855 -0.4044567004
C 5.9844748999 -0.7859426389 -0.0899524061
O 6.9873818289 0.0648545843 -0.4214057564
N 6.1194522603 -1.9336365732 0.4526468412
C 7.4392113682 -2.4469620626 0.7790163284
C 7.3076096333 -3.8275373702 1.4092097980
O 6.0507614110 -4.2666927501 1.5322342522
O 8.2595719379 -4.4837496041 1.7735997833
C 1.7592624932 0.6085451417 0.3805077471
C 1.7237443254 -0.1281139987 1.7506660006
C 0.2387654313 -0.4556979768 2.0497223907
C -0.4892831646 -0.0770320353 0.7562413353
C -1.9980064944 0.1391934379 0.8120964007
C -2.7334636466 -1.0713456938 1.4104621753
O -2.3802759719 -2.3123718037 0.7599249032
C -4.2477799954 -0.9086976475 1.3255187436
C -4.7747452268 -0.5052540794 -0.0594673694
C -4.7368965131 -1.6820719379 -1.0525983230
C -5.2711341725 -1.3074047447 -2.4276420676
O -5.2437130033 -2.4343418622 -3.3261977171
C -4.5047105605 -0.1158399042 -2.9857703686
C -4.6007580775 1.0577814186 -2.0129561603
C -4.0554264957 0.7622518822 -0.5983026430
C -4.4246882522 1.9781915386 0.2698111510
C -2.5199953423 0.5012223341 -0.5973725306
C -1.7108940528 1.6531014752 -1.2128867089
C -0.1898043465 1.4485041607 -1.1923360554
O 0.1931131401 0.3580103896 -2.0548437923
C 0.3042325624 1.1444781547 0.2299714723
C 0.1146898202 2.3936169169 1.1052924050
H 3.9362641883 2.8835805025 -1.1549647379
H 2.1828985900 3.0802721518 -1.1391318787
H 2.8952882805 1.6573469968 -1.9022661942
H 2.8021405387 2.3485505220 1.0815022027
H 5.0643139357 1.6802055458 0.5441213674
H 4.2775973989 0.5057916632 1.5938130476
H 4.6588955051 0.1726432215 -1.4299527505
H 3.9105632820 -1.0225226707 -0.3503346389
H 7.8538160562 -0.2939562194 -0.1781752439
H 7.9820525699 -1.8210093552 1.5048237117
H 8.0905275164 -2.5633868623 -0.1014750308
H 5.4865672191 -3.5423095320 1.1606901456
H 1.8889379329 -0.1384018133 -0.4115764245
H 2.3381274556 -1.0334964431 1.7223596914
H 2.1445228490 0.5111295699 2.5352621807
H -0.1368119672 0.1449040277 2.8865857605
H 0.0982576683 -1.5060283527 2.3265052072
H -0.2992052390 -0.8735787368 0.0220790212
H -2.1980209647 0.9708584476 1.5008979675
H -2.4555403931 -1.1484671365 2.4734978643
H -1.4472091099 -2.4814564135 0.9380383223
H -4.5321251989 -0.1426362272 2.0561632038
H -4.7243589492 -1.8422766224 1.6488891799
H -5.8346924725 -0.2326049584 0.0644239830
H -3.7114967945 -2.0499365703 -1.1655025355
H -5.3268721852 -2.5119914137 -0.6436502992
H -6.3344450047 -1.0403164278 -2.3512700016
H -4.3232839770 -2.7211093030 -3.3937773511
H -3.4565693242 -0.4065251049 -3.1470667967
H -4.9172192958 0.1652216667 -3.9619234063
H -5.6620528277 1.3248929253 -1.9033613181
H -4.1103601611 1.9439883609 -2.4293722604
H -5.5150691786 2.0584205170 0.3445137960
H -4.0263592324 1.9238975650 1.2854985988
H -4.0586088839 2.9059234798 -0.1816343226
H -2.3373029782 -0.3821615978 -1.2221098987
H -2.0063101008 1.8000672117 -2.2590877589
H -1.9348643865 2.5960588866 -0.7019116126
H 0.2776904173 2.3727667778 -1.5601253819
H -0.1982826101 0.5283067757 -2.9203526358
H 0.6305512369 3.2520784210 0.6622332553
H -0.9358390275 2.6681528037 1.2232751037
H 0.5286314294 2.2412019187 2.1057495069
