55
CONF34
C -3.2126112932 0.6204892129 -1.7612109378
C -2.6390621368 0.6079112101 -0.3181742579
C -3.2211630008 1.8800150577 0.3457616309
C -3.3786045810 1.8311920843 1.8624933498
C -4.1046475915 0.5948981688 2.3097897216
O -4.8100376401 0.5755477928 3.3245561345
C -3.8551454363 -0.6097635034 1.5339119584
C -3.1380678500 -0.6343327900 0.3875747583
C -2.7399737683 -1.9381671739 -0.2234148160
C -1.2049643764 -2.0002920525 -0.2423355213
C -0.6100596751 -0.8179666949 -1.0170661576
C -1.0611553647 0.5624066275 -0.4506998774
C -0.2342360514 0.9172982268 0.7910753730
C 1.2725587505 0.8466257489 0.5029746800
C 1.7773778368 -0.5114426628 0.0124907873
C 0.9114040454 -0.9437267087 -1.1947122340
C 1.4434106799 -0.1150154923 -2.3869534370
C 2.8976822113 0.2757191316 -2.0389961885
C 3.1774099156 -0.4051441062 -0.6850855548
C 4.2390630442 0.2808711982 0.1252874367
O 4.2579542987 1.4864865554 0.3401111001
C 5.3468466271 -0.5804433873 0.6822075715
O 6.2588188758 0.1595873405 1.4652483753
C 1.8422941360 -1.5188480160 1.1620056941
O -0.5140908432 2.2842007076 1.1571484140
H -2.9936040336 1.5943136009 -2.2122807681
H -4.2993936284 0.4933459884 -1.7329736740
H -2.7970822185 -0.1534364110 -2.4060171177
H -4.2247117322 2.0218986732 -0.0761834375
H -2.6280006824 2.7487343140 0.0513856998
H -2.3967101723 1.8160727228 2.3507613701
H -3.9090015490 2.7142397567 2.2327261962
H -4.2296157151 -1.5403779956 1.9565707990
H -3.1539911540 -2.7718488020 0.3509023917
H -3.1157690321 -2.0178715849 -1.2509585122
H -0.8818547803 -2.9362728901 -0.7121803861
H -0.8512797456 -2.0222052191 0.7922960893
H -1.0171251408 -0.8930646130 -2.0331969924
H -0.8148831071 1.3331873917 -1.1957619772
H -0.5049106834 0.2535817079 1.6279133806
H 1.4817811060 1.6211902644 -0.2441717288
H 1.8092602089 1.1370040357 1.4152456020
H 1.1317188205 -2.0023258021 -1.3899289079
H 0.8326067284 0.7807017209 -2.5350952696
H 1.3832464003 -0.6974201993 -3.3106157223
H 3.6171420662 -0.0548245206 -2.7928034993
H 3.0030504983 1.3593889141 -1.9385693408
H 3.5034464116 -1.4395813364 -0.8585407599
H 5.8519540502 -1.0537450605 -0.1771107005
H 4.8959946096 -1.3980817726 1.2666298507
H 5.9499611359 1.0814955396 1.4142107613
H 2.1007571145 -2.5176397556 0.7935553937
H 0.8975635160 -1.5883625316 1.7041579320
H 2.6021012447 -1.2134911619 1.8902815673
H 0.0563477357 2.4972887308 1.9070586560
