47
CONF3
C -4.7157838811 -1.9720336134 1.0220433995
C -3.6163614616 -0.9171966239 0.8551809611
C -4.2532976294 0.4308237558 0.5048353100
C -2.5940107945 -1.3738290347 -0.1977827954
C -2.0392058210 -2.7902980873 0.0166126755
C -0.7648324995 -2.8006747334 -0.8227590802
C -0.1022044251 -1.4499604058 -0.5070490231
C 0.7776940624 -1.5488778102 0.7539050160
C 1.6052034597 -0.3220543333 1.0633006788
C 1.5703391324 0.2657677471 2.3322510529
C 2.3329050166 1.3892424881 2.6337084011
C 3.1431104980 1.9362474024 1.6467302319
Cl 4.1012589080 3.3580176684 2.0093935042
C 3.2022052213 1.3776913910 0.3762048996
C 2.4370919176 0.2519804940 0.0963998276
C -1.3187756770 -0.4692784398 -0.3615706435
O -1.2171562159 0.3954223893 0.7665279367
C -1.4862023751 0.3819156530 -1.6395034843
N -0.3877441459 1.3068700976 -1.8711765403
C -0.1551044229 2.5139219125 -1.3036169258
N 0.9576043555 3.0460756798 -1.7854916412
C 1.3783167820 2.0985112779 -2.6647991198
N 0.6013256824 1.0249869124 -2.7555682966
H -5.4682473626 -1.6272854929 1.7383539037
H -5.2253979857 -2.1571395561 0.0681681269
H -4.3234168507 -2.9253565427 1.3860786019
H -3.0866031188 -0.8110958199 1.8097842491
H -4.7680340905 0.3748713031 -0.4630680772
H -3.5115659879 1.2310448709 0.4658280295
H -3.1121673313 -1.3752016399 -1.1709543574
H -1.8040194105 -2.9455669907 1.0776919015
H -2.7486423243 -3.5680658407 -0.2783109828
H -1.0290472890 -2.8483576498 -1.8868734824
H -0.1051454282 -3.6486760803 -0.6134075343
H 0.5327722086 -1.1320355742 -1.3401437758
H 1.4611953230 -2.3948044149 0.6023000619
H 0.1617230222 -1.7920369596 1.6253966311
H 0.9247557800 -0.1563459424 3.0973171559
H 2.2955528298 1.8375668753 3.6197161042
H 3.8293123971 1.8245179166 -0.3859797706
H 2.4847373636 -0.1751092330 -0.9002787109
H -2.4116225871 0.9601556786 -1.5598424789
H -1.5503992322 -0.2644380934 -2.5194170154
H -0.8206536667 2.9531070215 -0.5724700717
H 2.2752091872 2.1975596941 -3.2626784168
H -4.9998864951 0.7065807024 1.2566241343
H -0.3085854880 0.7239685510 0.8196102613
