45
CONF36
C -3.0222737279 -1.3174829360 -0.3228869732
C -2.7519579447 -0.9006564687 1.0913286116
N -3.6544734551 -0.8532405424 2.0075786198
O -4.9080757518 -1.2253940168 1.5101356576
C -5.8774750893 -1.1217122620 2.5637170279
C -1.3791426816 -0.5921113010 1.5552896100
C -0.5139588232 0.2412578474 0.8170594381
C 0.7902747931 0.4313040533 1.2775425827
C 1.2477845981 -0.1491730648 2.4496291664
C 0.3882961833 -0.9651285177 3.1748444832
C -0.9079598505 -1.1922458981 2.7269057719
O 1.6153330942 1.3393053193 0.6191537010
C 2.4376544388 0.8547477981 -0.3548934670
N 2.4807541994 -0.4554292086 -0.5399549819
C 3.3057477782 -0.8604825355 -1.5141795707
C 4.0727932455 0.0170295471 -2.2717848626
C 3.9289725205 1.3645136780 -1.9490372718
N 3.1102591086 1.8065680105 -0.9875529132
O 4.6549714489 2.2450216550 -2.6516235429
C 4.5056657663 3.6468713483 -2.3287846317
O 3.4074731133 -2.1697148838 -1.7823670003
C 2.5971185945 -3.0751729388 -0.9973721697
C -0.9564227127 0.9669132395 -0.4073909729
O -0.3270494122 1.0326317683 -1.4437926611
O -2.1469852896 1.5573751517 -0.2122733617
C -2.6989292466 2.2425053669 -1.3659891279
H -3.7837474972 -0.6790259594 -0.7806473638
H -3.4170263273 -2.3396053771 -0.3237735398
H -2.1158175159 -1.2981028238 -0.9294054898
H -5.6213806214 -1.7886653010 3.3939466596
H -5.9521091421 -0.0895025638 2.9222375709
H -6.8245127150 -1.4297534589 2.1163608394
H 2.2641464788 0.0428516115 2.7756232433
H 0.7352606274 -1.4369224368 4.0882156085
H -1.5681242397 -1.8546317233 3.2747622736
H 4.7352867855 -0.3215179053 -3.0566978349
H 4.7982360231 3.8358564291 -1.2930300607
H 3.4735071424 3.9692257609 -2.4865416754
H 5.1759725474 4.1640569341 -3.0147195692
H 1.5354303638 -2.8485049299 -1.1242715974
H 2.8644827989 -3.0110215108 0.0604827500
H 2.8258197082 -4.0658900733 -1.3890507463
H -2.8280149067 1.5375249143 -2.1908851415
H -2.0353900037 3.0546507973 -1.6712810752
H -3.6604153934 2.6317378142 -1.0346259177
