21
CONF1
C 2.5064622020 0.5374657373 -0.0570026751
C 1.2177066584 -0.2386575224 -0.0495948953
C 1.2456296407 -1.6335984789 -0.1138570838
C 0.0650378271 -2.3689034548 -0.1088230140
C -1.1550586677 -1.7064064632 -0.0399296758
C -1.2160175927 -0.3099824488 0.0253931045
C -0.0197812270 0.4325510810 0.0211134230
C -0.0282205607 1.9368374463 0.0898424217
C -2.5635883379 0.3620211231 0.0981993196
H 3.3641810404 -0.1356393661 -0.1242189567
H 2.6152393521 1.1413437407 0.8515004491
H 2.5495945125 1.2337717542 -0.9025855058
H 2.2038860074 -2.1434908525 -0.1685782732
H 0.0958626318 -3.4533478104 -0.1590169446
H -2.0805233844 -2.2762346317 -0.0363102007
H 0.5382958801 2.2924001753 0.9584768465
H 0.4521961774 2.3722401499 -0.7943941171
H -1.0363897963 2.3439326556 0.1579111950
H -2.7239084359 1.0391027245 -0.7481656674
H -3.3614343742 -0.3841813254 0.0890576872
H -2.6691696591 0.9587759674 1.0109827641
