82
CONF24
C -4.2191621090 3.1048918240 -0.7848892237
C -4.2343397561 1.9916042067 -1.7953687059
C -4.2717472332 2.2465142448 -3.1083147712
C -4.2684329857 0.5745495905 -1.2749771760
C -5.6784255724 0.2410912776 -0.6622202836
C -5.4225349169 -0.3960023923 0.7225806111
C -3.9880515985 -0.9341726792 0.6264142451
C -3.2985725059 0.2321516420 -0.1206005189
C -1.8263709836 -0.0525643963 -0.4229176075
C -1.1356164533 1.0369890277 -1.2409266469
C 0.3008526740 0.6485218653 -1.5984136581
C 1.1303420369 0.2924873405 -0.3574448784
C 2.6698814170 0.1267000822 -0.6423437331
C 3.1837018859 1.4638328627 -1.2267862659
C 4.7062715849 1.5752010567 -1.2352012470
C 5.2890450907 1.3916893940 0.1519288073
C 4.9117005995 0.0317917361 0.7911573517
C 3.3537299495 -0.0697729154 0.7461046276
C 2.7808535148 -1.2972114107 1.4580182319
C 1.2882268554 -1.1109980311 1.7378008350
C 0.4433083878 -0.8416682530 0.4761248228
C -1.0245807775 -0.3554205827 0.8887737829
C -1.7666711396 -1.4364471320 1.7221119818
C -3.2582206294 -1.1440807169 1.9542741882
C -0.9676742039 0.9035576573 1.7879456395
C 0.3700215457 -2.1630598853 -0.3164114738
C 5.6422194988 -1.1330654416 0.1088143444
C 5.3658471296 0.0671484516 2.2630208656
O 6.7112423755 1.5821431702 0.0260890488
C 2.9737335248 -0.9871541486 -1.6692263825
C -3.9943445001 -2.2251549181 -0.2044630939
O -4.6767310197 -3.2485645961 0.5459118443
H -4.9590550894 2.9401731936 0.0075737791
H -3.2425797877 3.1668725544 -0.2898963334
H -4.4218490677 4.0687855998 -1.2581655438
H -4.3011574855 3.2647485092 -3.4871497971
H -4.2657617630 1.4407511083 -3.8382865710
H -4.0766644693 -0.0935811303 -2.1232515950
H -6.2955012410 1.1406075879 -0.5804855553
H -6.2121688501 -0.4455403240 -1.3261243355
H -5.4587180188 0.3706939262 1.5061816125
H -6.1551881948 -1.1680447422 0.9751208801
H -3.3555009536 1.0773606929 0.5774729427
H -1.8039161974 -0.9599302846 -1.0398240923
H -1.7017581524 1.2163237542 -2.1610123191
H -1.1388808142 1.9854404130 -0.6871796958
H 0.7659388158 1.4818786653 -2.1336858448
H 0.2728164866 -0.1914333943 -2.3031605536
H 1.1064190009 1.1824919823 0.2841850207
H 2.7718711731 2.2923618798 -0.6322840985
H 2.8182301184 1.5941308061 -2.2507703559
H 5.1538905256 0.8404931190 -1.9150089710
H 4.9994548150 2.5629098710 -1.6101369193
H 4.8778110482 2.1798013814 0.8072113315
H 3.0168250290 0.8013248032 1.3364135200
H 3.2844581614 -1.4542474873 2.4164578039
H 2.9598486801 -2.2054040826 0.8720731165
H 1.1946276918 -0.2684671033 2.4322912050
H 0.8984371205 -1.9959280577 2.2553563094
H -1.6927383332 -2.4138476463 1.2398859593
H -1.2713378789 -1.5385958355 2.6941877985
H -3.7046757224 -1.9710214528 2.5175888334
H -3.3852725976 -0.2404759663 2.5636517388
H -0.6251827746 0.6423253993 2.7929554235
H -1.9586035137 1.3470466369 1.9040273969
H -0.3141327036 1.6902963813 1.4103282284
H 1.3672481745 -2.5658847586 -0.4859034500
H -0.1031073992 -2.0593938190 -1.2946138815
H -0.1795848642 -2.9237947081 0.2421299069
H 5.5242068708 -1.1361035858 -0.9755337672
H 6.7130465165 -1.0765528782 0.3269226567
H 5.2729218187 -2.0896945032 0.4918068803
H 6.4333190016 0.3049626566 2.3377872626
H 5.2361489036 -0.9032268950 2.7495170521
H 4.8059280283 0.8173468336 2.8338292395
H 7.0883331161 1.6408963187 0.9117908855
H 2.1363043778 -1.1128884075 -2.3600175961
H 3.8478048993 -0.7388145615 -2.2762342931
H 3.1719066387 -1.9571922753 -1.2101120887
H -4.5109366196 -2.0587192124 -1.1587328459
H -2.9739097580 -2.5562505348 -0.4321386372
H -4.6991188670 -4.0405182155 -0.0036030084
