45
CONF11
C 3.5336263566 -1.5025600921 0.4313385931
N 3.3257275791 -0.5188578854 1.4984944695
C 4.2768401392 0.5826239358 1.3259253286
C 1.9535661350 0.0087585839 1.4602922772
C 0.9117341388 -1.0019146237 1.9272490135
C -0.5123089872 -0.4487599097 1.8805725788
N -0.9067343904 0.0067859011 0.5365877844
C -1.9827448378 0.9206293605 0.4364002179
C -2.8638556387 1.0478016751 1.5296096004
C -3.9252252595 1.9430558661 1.5203957085
C -4.1526665823 2.7364150647 0.4015707600
C -3.2930125698 2.6142214347 -0.6830411012
C -2.2057730595 1.7330889026 -0.7037799673
C -1.3618242561 1.7692179042 -1.9641099140
C 0.0106706185 1.0958038576 -1.8978474938
C -0.1422785278 -0.3841024223 -1.7429549933
C 0.1454444517 -1.2708823397 -2.7814391393
C -0.0485875824 -2.6418485186 -2.6328172926
C -0.5566202445 -3.1375082062 -1.4342379372
C -0.8629626969 -2.2653020647 -0.3941112989
C -0.6544524200 -0.8896910462 -0.5394303110
H 3.3262939631 -1.0772427459 -0.5712271730
H 2.8884014944 -2.3740774733 0.5723560016
H 4.5722233470 -1.8479819492 0.4492856998
H 4.1404416289 1.1105133775 0.3615380145
H 4.1552297342 1.3111367330 2.1343514912
H 5.3008403445 0.1961655433 1.3591638563
H 1.9089627235 0.8871940698 2.1172532803
H 1.7065515235 0.3588460580 0.4397576622
H 0.9743249388 -1.9207090072 1.3381828479
H 1.1171939538 -1.2792317491 2.9680127851
H -1.2044180777 -1.2015795158 2.2916913481
H -0.5667942887 0.4263048197 2.5377775017
H -2.7313702119 0.4185876720 2.4004948529
H -4.5778122761 2.0042695143 2.3862849290
H -4.9768215581 3.4418311435 0.3734555269
H -3.4498762312 3.2410919235 -1.5579939591
H -1.9295381640 1.3082819931 -2.7840918257
H -1.2319921547 2.8219287611 -2.2412855932
H 0.5810040268 1.5120395526 -1.0587697355
H 0.5603023872 1.3173191878 -2.8175866215
H 0.5412555722 -0.8757349401 -3.7134920880
H 0.1942247515 -3.3178257209 -3.4467142758
H -0.7216677569 -4.2031583461 -1.3076598822
H -1.2655223167 -2.6549436817 0.5354089653
