70
CONF186
C -1.2924335845 -1.0270846581 2.0032891223
C -2.4295379856 -1.9061278619 2.5752258517
C -2.2442351405 -2.0657479587 4.0479579826
C -2.6006617375 -3.0191878026 4.9662334448
N -2.1276861153 -2.6404765635 6.2216023109
C -1.4494484845 -1.4444548965 6.1176055089
C -0.7676074832 -0.6385815679 7.0301360282
C -0.1745912423 0.5122358667 6.5212853479
C -0.2452070562 0.8727537879 5.1588656567
C -0.9342960952 0.0780030079 4.2520659611
C -1.5220840011 -1.0765573135 4.7620024165
C -1.1425748741 0.3211876122 2.7716588387
C -0.0300594599 1.1754884060 2.1652178144
C -0.2487166456 1.3807330040 0.6716288430
C -0.4070621840 0.0145160835 -0.0029818256
N -1.5292135241 -0.7169381188 0.5832093100
C -1.8986506628 -1.8557607337 -0.2725244553
C -0.8408787684 -2.9138752944 -0.4323574309
C -0.3366443462 -3.2918375873 -1.6041708245
C 0.9263713881 2.1386451565 0.0644548211
O 1.9006494159 2.4591150165 0.7299297136
N 0.9344006864 2.3602199025 -1.3130042557
C 2.2034947918 2.8489034708 -1.8883830128
C 3.3475411027 1.8292374606 -1.8403777042
C 2.9969607118 0.4399411230 -2.3592596362
N 2.4523335493 0.4197463661 -3.7272007619
C 3.4284820987 0.8720208323 -4.7181722976
C 1.9759494613 -0.9258628877 -4.0531613969
C -0.2598783400 2.3300123189 -2.1096203648
O -1.3474812874 2.6713284178 -1.6672929905
N -0.0540996328 1.9112569270 -3.3825828598
C -1.1862616274 1.7897074695 -4.2911012587
C -2.0117592288 0.5283480790 -4.0413003313
H -0.3381189538 -1.5779638426 2.1438165755
H -3.3885034667 -1.4191591382 2.3444711299
H -2.4388230539 -2.8862314811 2.0878431185
H -3.1503272601 -3.9424931705 4.8488303902
H -2.2496287232 -3.1734129482 7.0637461977
H -0.6907787008 -0.8876175462 8.0835850300
H 0.3699923930 1.1606621468 7.2004158435
H 0.2519856370 1.7812065381 4.8366280304
H -2.1004228219 0.8504336848 2.6417091700
H 0.0186475176 2.1471825804 2.6647522079
H 0.9379468826 0.6892409040 2.3374218123
H -1.1678970671 1.9470286996 0.4970166967
H -0.6086403692 0.1289616139 -1.0737925257
H 0.5485693114 -0.5427107527 0.0927912500
H -2.8182514566 -2.3045181757 0.1185907616
H -2.1517815786 -1.4518576999 -1.2612199484
H -0.4731638896 -3.3813247396 0.4812726268
H -0.6888575580 -2.8462222463 -2.5328167466
H 0.4231443660 -4.0632877821 -1.6832925684
H 2.5099299518 3.7385222299 -1.3271147428
H 1.9970199894 3.1552962020 -2.9158665821
H 4.1953666946 2.2522849933 -2.3922799267
H 3.6797266144 1.7170781343 -0.8044895191
H 2.2336157546 0.0010259108 -1.7041272455
H 3.8911638370 -0.2089299525 -2.2858609467
H 4.3472168982 0.2562142766 -4.7147123821
H 3.7115005698 1.9114166634 -4.5312179951
H 2.9851224005 0.8199465740 -5.7176084376
H 1.2206528195 -1.2330945455 -3.3215257628
H 1.5185204059 -0.9289504944 -5.0486503020
H 2.7880450301 -1.6758453272 -4.0434194151
H 0.8256398239 1.4223380484 -3.6054145716
H -1.8183049204 2.6750802637 -4.1698243945
H -0.7922132143 1.7957901221 -5.3139322768
H -2.4218526505 0.5469308384 -3.0277679234
H -1.3963897148 -0.3705654734 -4.1581697903
H -2.8449667099 0.4666375414 -4.7486637158
