55
CONF20
C 0.8777326427 1.2027078784 -1.7983688220
C 1.7006432795 1.7191364834 -0.6299827351
N 3.0154098998 1.0710363792 -0.6030562651
C 2.8404356194 -0.3806555630 -0.5177130920
C 2.0236911717 -0.8900654901 -1.6949530832
N 0.7116149065 -0.2471602283 -1.7094782980
C -0.1576769001 -0.7580650937 -2.7633667847
C -1.6443489878 -0.6062424944 -2.3784357043
C -1.9981127634 -1.5872592329 -1.3077714595
C -1.9914671524 -1.4253925804 0.0295527905
C -2.1810303697 -2.5974490843 0.9095161355
C -3.1551926808 -3.5675908965 0.6475768539
C -3.2643166581 -4.7077186717 1.4323797951
C -2.4085996055 -4.8901177527 2.5162394869
C -1.4614590434 -3.9219390289 2.8227433019
C -1.3528698155 -2.7814048821 2.0266315902
S -0.0960022775 -1.5916099188 2.4321282394
C -0.8615022821 -0.1153724668 1.8285660176
C -1.7253666616 -0.1495849345 0.7211861244
C -2.3389871016 1.0453872236 0.3333101445
C -2.0221120869 2.2455077601 0.9553631347
C -1.1195045323 2.2739720315 2.0193980807
C -0.5589363221 1.0902671983 2.4670203311
C -2.6602548040 3.5294453209 0.5198353559
F -3.5337564647 4.0032586479 1.4446790533
F -3.3423911351 3.4022640009 -0.6408128561
F -1.7331380152 4.5046586576 0.3341496300
C 3.8533139117 1.5795737618 0.4870959735
C 4.4236843061 2.9483548717 0.1302962009
O 5.0990703680 2.9022570504 -1.1196530690
H 1.3715877001 1.4923767252 -2.7487624802
H -0.1057922898 1.6865928443 -1.7728489642
H 1.8291328559 2.8013671294 -0.7397041894
H 1.1482352722 1.5367562151 0.3114521675
H 3.8288643322 -0.8547382216 -0.5303413938
H 2.3297043329 -0.6732993112 0.4212518977
H 2.5865756037 -0.7060333900 -2.6332478273
H 1.8841676458 -1.9723615783 -1.5887122975
H 0.0264401836 -0.2526465721 -3.7313364728
H 0.0612870769 -1.8226779213 -2.9129489554
H -2.2556266221 -0.7996333396 -3.2681823215
H -1.8281714311 0.4282471319 -2.0863371236
H -2.1480090818 -2.6063439363 -1.6634047016
H -3.8338485001 -3.4103222832 -0.1847964961
H -4.0244092894 -5.4479797775 1.2064135950
H -2.4932771065 -5.7742570159 3.1391548399
H -0.8113045432 -4.0422459168 3.6833687301
H -3.0751764428 1.0271801896 -0.4604919930
H -0.8782893317 3.2122417685 2.5072006065
H 0.1113435734 1.0928127272 3.3203060232
H 4.6900337324 0.8829076207 0.6189425865
H 3.3026453773 1.6320739605 1.4476776463
H 3.6298213688 3.7132801046 0.1194708076
H 5.1524303963 3.2480457054 0.8916205283
H 4.5630643390 2.3084582106 -1.6685254849
