21
CONF5
C 1.0324536990 0.5824903363 0.5973444593
N 1.1985837829 -0.8322130043 0.3398107532
C -0.0286083349 -1.6407598590 0.4090967353
N -1.1657312905 -0.8239061552 -0.0534550615
C -0.8082246108 0.1854764467 -1.0405346471
N 0.1584121510 1.1373302125 -0.4671324857
N -0.2397041412 2.4508058092 -0.2846743080
O 0.3710315169 3.0824231207 0.5733435557
O -1.1101648332 2.8903024818 -1.0233732504
N -2.0755639204 -0.4011932314 0.9484252265
O -2.6753166247 0.6420184024 0.7404209320
O -2.2286421177 -1.1480190947 1.9009065681
N 2.1330880499 -1.1738741802 -0.6746433012
O 2.9021394688 -0.2982251495 -1.0329650838
O 2.1304077610 -2.3343180177 -1.0505391690
H 1.9946363011 1.0909900530 0.6008243164
H 0.5663620889 0.6854776443 1.5862648025
H -0.2140124149 -1.9554022188 1.4377113471
H 0.0906302132 -2.5171610639 -0.2292574394
H -1.6831515007 0.7250654858 -1.3981944844
H -0.3486247408 -0.3473080180 -1.8793794656
