82
CONF26
C -3.0557973428 2.5100137903 -1.5560500453
C -2.2961253716 2.2193241613 -0.2913599861
C -1.3221847667 3.0321189659 0.1307899018
C -2.7093867624 1.0215018925 0.5302585091
C -4.0548049259 1.2402799518 1.2509209050
C -4.3446275848 -0.1391505602 1.8324996090
C -3.9102412541 -1.1438236864 0.7344574301
C -2.9652857706 -0.3203286563 -0.2092991480
C -1.7994816858 -1.1658933628 -0.7752925279
C -0.9686274618 -0.3853450249 -1.7976579446
C 0.3085425320 -1.1373879989 -2.1380037503
C 1.2810250394 -1.2149641441 -0.9405663788
C 2.3764382466 -0.0525972334 -1.0432914795
C 1.8447391352 1.3125428127 -1.5470463958
C 2.9452422902 2.3757642896 -1.6457269640
C 3.6524904434 2.6403056368 -0.3219525148
C 4.1358433932 1.3316580090 0.3627840881
C 3.0329728325 0.2133285346 0.3396997744
C 1.9482718891 0.5122975636 1.4111401724
C 0.5444983616 -0.0405628629 1.1426580584
C 0.5448347328 -1.3986937428 0.4421455115
C -0.9225475986 -1.9820914070 0.2541154704
C -1.7092721862 -2.0597196563 1.5863672318
C -3.1892382182 -2.3567962546 1.3451626227
C -0.8072483556 -3.4451819819 -0.2561432747
C 1.3547462803 -2.3795734081 1.3167537607
C 5.4392912810 0.8953358715 -0.3403666981
C 4.5551992016 1.6243846259 1.8169743703
O 2.7286313092 3.4133504390 0.4681083869
C 3.3756533018 -0.6258075118 -2.0754572363
C -5.1199721709 -1.6065580390 -0.0865431214
O -5.9796374805 -2.5176352809 0.5982536637
H -4.1385736423 2.4965530902 -1.3874032312
H -2.8471769750 1.7608434236 -2.3276038479
H -2.7840073060 3.4900406796 -1.9545819654
H -0.7686378954 2.8308093170 1.0437592062
H -1.0417898246 3.9229059945 -0.4232048275
H -1.9581481711 0.8768390233 1.3132865484
H -3.9977177249 2.0346578570 2.0009928102
H -4.8282882782 1.5199082889 0.5247729570
H -3.7410676162 -0.2889828628 2.7358905015
H -5.3930757563 -0.2660434461 2.1320812711
H -3.5634162150 -0.0481514584 -1.0942983015
H -2.3185808326 -1.9408306704 -1.3578410339
H -1.5687841796 -0.2339911639 -2.7041257375
H -0.7245339775 0.6104905300 -1.4215651442
H 0.8031322868 -0.6711146234 -2.9944846245
H 0.0409908807 -2.1433355936 -2.4795813653
H 1.8708280778 -2.1308131910 -1.0731204657
H 1.0708236979 1.6969087516 -0.8761761333
H 1.3828085011 1.2125021441 -2.5344805716
H 3.6878870861 2.0981150367 -2.3994558323
H 2.5068165406 3.3217997962 -1.9814308796
H 4.5474476652 3.2587735404 -0.5121427397
H 3.5565204815 -0.7108442324 0.6236237459
H 2.3057474824 0.1314891493 2.3740776873
H 1.8462096023 1.5927612510 1.5253033807
H -0.0158395536 0.6728150629 0.5376345304
H 0.0300821068 -0.0986139230 2.1079102921
H -1.2779254601 -2.8354159993 2.2270533103
H -1.6317736627 -1.1204993310 2.1423608017
H -3.3022754640 -3.2285882296 0.6919388686
H -3.6819952991 -2.6292188240 2.2850216389
H -1.7643222879 -3.8038993952 -0.6432937489
H -0.5141495769 -4.1217607833 0.5513877623
H -0.0747863962 -3.5581412481 -1.0579639481
H 1.4799000887 -3.3506533573 0.8329614478
H 0.8708409848 -2.5381802266 2.2860248292
H 2.3551009264 -1.9958687394 1.5180395320
H 6.2553568955 1.5658187319 -0.0499213311
H 5.3799249629 0.9161592662 -1.4271252388
H 5.7203322861 -0.1190866410 -0.0395178724
H 3.7323357561 1.9450326690 2.4584748875
H 5.3276937795 2.4032425389 1.8330916702
H 4.9898102077 0.7259310364 2.2700778296
H 3.1863961982 3.6962690507 1.2668833280
H 2.8323894447 -1.1032577053 -2.8967722625
H 4.0089570284 -1.3901959748 -1.6130389988
H 4.0261936053 0.1189779085 -2.5294459886
H -5.6843167858 -0.7261018766 -0.4399383131
H -4.7690694696 -2.1511199417 -0.9721003821
H -6.3382173714 -2.0650301037 1.3696347678
