28
CONF59
O -2.8181265974 0.8780970414 -2.8241925232
C -1.5316443866 0.5801185245 -2.2756266915
C -1.7463530805 -0.4636279276 -1.1906280687
O -0.4576470488 -0.9886117517 -0.7918160787
C -0.2398815791 -0.7225604003 0.5961122333
C -1.1873614955 0.4202122162 0.9491514374
C -2.3962235512 0.0968273102 0.0848633515
O -3.1610512000 -0.8969330344 0.7754654950
N 1.1841959659 -0.4154217513 0.7851879745
C 1.7948094173 0.5148625347 -0.0151766078
C 3.1005765009 0.8407034348 0.0970683817
C 3.9177292354 0.1982230897 1.0943374300
O 5.1121316663 0.4020343631 1.2986584888
N 3.2199446283 -0.7381332230 1.8698652461
C 1.8882920006 -1.0903358548 1.7851976725
O 1.3789130255 -1.9175070384 2.5279798606
H -2.7057729232 1.5684111504 -3.4881972126
H -0.8558298266 0.1655244669 -3.0367845842
H -1.0634710171 1.4801368294 -1.8473942581
H -2.3480554624 -1.2878993943 -1.5955386905
H -0.4384706928 -1.6156523189 1.1940498084
H -0.7555745721 1.3810318209 0.6521006558
H -1.4294850475 0.4515684495 2.0130816386
H -3.0090864751 0.9789735790 -0.1376287622
H -3.9050315825 -1.1434678013 0.2110325213
H 1.1553835382 0.9644414426 -0.7663800743
H 3.5506731650 1.5753965903 -0.5561377417
H 3.7464179931 -1.2164117444 2.5913490977
