34
CONF10
C 2.3825874521 -0.3804597266 -0.8126237088
C 3.4202769162 -1.0891628733 0.0319656337
O 4.4582128987 -0.0870073963 0.2930112825
P 4.0726451119 1.3437267923 0.9202638234
O 3.4743584311 1.0593543202 2.3813110580
O 5.1898620793 2.3026017600 0.8200000545
O 2.7420857712 1.8354861955 0.1521016151
C 1.7777495101 0.7843998938 -0.0420545478
C 0.5778585369 1.1317794204 -0.9027739504
O 1.0273412343 1.8126713761 -2.0569794410
C 0.1050221155 -0.3173945337 -1.2484455248
O 1.2398246239 -1.1846491130 -1.1159370096
N -0.9427036437 -0.8068245303 -0.3627003381
C -0.8128940321 -1.5288131343 0.8069338183
N -1.9643589229 -1.7737451662 1.3943767636
C -2.9021749564 -1.1749276296 0.5746349141
C -2.2902365228 -0.5669811447 -0.5227407958
N -2.8942063519 0.1065682025 -1.5100875481
C -4.2204732053 0.1335548075 -1.3337537341
N -4.9445967938 -0.4005820781 -0.3402627514
C -4.3063378352 -1.0710353043 0.6453053398
N -5.0250743151 -1.6014930504 1.6479290956
H 2.8553206090 -0.0130426683 -1.7343756963
H 3.9211284864 -1.9026356957 -0.4939102785
H 2.9987723249 -1.4494878291 0.9772481212
H 4.1179209037 0.6847824860 3.0041741652
H 1.4147985570 0.4347090574 0.9340830632
H -0.2028249415 1.6845583225 -0.3682978371
H 0.2525058624 2.1112928100 -2.5508857941
H -0.2834832369 -0.3449380852 -2.2729933637
H 0.1564959629 -1.8565324537 1.1583640322
H -4.7918403135 0.6605498994 -2.0974373965
H -4.5746360584 -2.1252510078 2.3793008209
H -6.0289277610 -1.5217262481 1.6452561993
