41
CONF1
C -2.6874612129 -2.6759245582 -1.0493804624
C -1.2190636001 -2.5503893247 -1.4504789494
C -0.4251125741 -1.5252951568 -0.6149715617
C -0.5005825869 -1.8635504794 0.8808171606
O -0.2054715062 -2.9366652634 1.3744143455
C -1.0427771415 -0.6887211879 1.5948060467
C -1.2195368086 -0.4991543166 2.9618179815
C -1.7592712447 0.7116934971 3.3835571311
C -2.1246994540 1.7034475059 2.4601047067
C -1.9533591505 1.5100678956 1.0938669352
C -1.4003601600 0.3042713879 0.6752057808
C -1.0825763970 -0.1418137357 -0.6964939949
O -1.3279352639 0.4605525769 -1.7265806976
C 1.0435788907 -1.5091813257 -1.1025062510
C 1.9729157779 -0.5728302520 -0.3536848462
C 3.3129683040 -1.0524377764 0.0235187712
O 2.2543805047 -0.9736876058 1.0027381641
C 1.7771202885 0.9025049087 -0.5386452798
C 1.5323108024 1.7170464918 0.5662430951
C 1.3249566542 3.0752152175 0.3655505125
C 1.3662930916 3.6525234478 -0.8959632681
C 1.6310890512 2.8283296150 -1.9888040714
C 1.8321233681 1.4643692845 -1.8167051202
Cl 0.9809037054 4.0927171268 1.7634063348
H -3.2191505062 -1.7253136833 -1.1634907581
H -2.7938138472 -3.0019643822 -0.0093029264
H -3.1878649209 -3.4144321656 -1.6816294487
H -0.7154757635 -3.5182205097 -1.3472489757
H -1.1383928152 -2.2497257019 -2.5012711738
H -0.9391559791 -1.2699461404 3.6723259315
H -1.9039038619 0.8969274979 4.4430606401
H -2.5443515133 2.6358482736 2.8238828608
H -2.2262326683 2.2767071427 0.3758925949
H 1.0428510477 -1.2469907061 -2.1663504435
H 1.4288480537 -2.5300183948 -1.0115894180
H 4.1109700339 -0.3242447081 0.1591442328
H 3.6128207426 -2.0633148352 -0.2489091918
H 1.4870533494 1.2886717389 1.5605247071
H 1.1995714220 4.7156653802 -1.0255120625
H 1.6761435791 3.2624847789 -2.9823175624
H 2.0296503089 0.8347778495 -2.6784010463
