46
CONF2
C -3.8800479077 -0.7885617939 -1.6776340113
C -2.5989203844 -0.2506343994 -2.2715125240
C -2.7695477936 0.3395064210 -3.6535573311
C -1.3165244743 -0.9705387670 -1.9176553949
C -0.2314459986 -1.1668384086 -2.8810408251
C 0.4236941571 -2.3118414854 -3.0738928695
Cl 1.7234473517 -2.4569095621 -4.2299842366
Cl 0.0822709504 -3.7869662249 -2.2136735966
C -1.5713518223 0.4361698761 -1.3759310263
C -1.7849760802 0.5929935586 0.0762946213
O -2.0966144881 -0.2889736935 0.8537677154
O -1.5766069422 1.8833703071 0.4368967106
C -1.6845679445 2.2129096326 1.8529543791
C -0.3153985646 2.3155969284 2.4655843739
C 0.5842132189 1.2569295572 2.3311925520
C 1.8552720454 1.3633998304 2.8841085154
O 2.7753852119 0.3356908896 2.8102743446
C 2.7995362261 -0.4698229918 1.6811699244
C 2.9778148229 -1.8338429201 1.8841570541
C 3.0955328551 -2.6748283865 0.7801557957
C 3.0268387879 -2.1576090738 -0.5110518270
C 2.8441165295 -0.7880230634 -0.6969048567
C 2.7347755243 0.0663410385 0.3961449261
C 2.2343280098 2.4940221234 3.6050061995
C 1.3239797541 3.5337656598 3.7537455063
C 0.0580074033 3.4571257496 3.1756207509
H -4.3014423858 -1.5417457919 -2.3519129831
H -4.6143669979 0.0177053933 -1.5699411201
H -3.7196989860 -1.2471049694 -0.7010274991
H -1.8520454896 0.7926343621 -4.0344934897
H -3.0877020053 -0.4399618013 -4.3547536848
H -3.5453929406 1.1118304910 -3.6310943028
H -1.4394306257 -1.7505940457 -1.1724682626
H 0.0812387514 -0.3241629752 -3.4904924237
H -1.0253626557 1.2487925308 -1.8437982805
H -2.2005391958 3.1740313190 1.8912308351
H -2.2915316663 1.4496444639 2.3478987442
H 0.3012388574 0.3575097779 1.7954085200
H 3.0263875207 -2.2201846558 2.8968433554
H 3.2367375372 -3.7400593321 0.9340264479
H 3.1163863026 -2.8166132159 -1.3679356614
H 2.7941875183 -0.3780461712 -1.7009926708
H 2.6030020378 1.1341790996 0.2564018481
H 3.2301474020 2.5468885331 4.0319711311
H 1.6131365907 4.4212811959 4.3076070595
H -0.6381596364 4.2844870141 3.2732873608
