65
CONF242
C -3.2726004046 -1.7286035127 -1.4512900839
C -3.8739898808 -0.3522860609 -1.7247465229
C -2.9584144657 0.5520430051 -2.5588940345
C -3.6242217351 1.9049330982 -2.8598819017
C -1.6178888365 0.8128914851 -1.9035232017
O -0.5443110249 0.7305852151 -2.4741273715
O -1.7572338491 1.1979446964 -0.6220825608
C -0.5609092318 1.6482236819 0.0907401501
C -0.3812605297 3.1385119717 -0.1431849454
C 0.8852365600 3.6431717865 0.5628228079
C 0.9737999965 3.0888102277 1.9535359522
C 0.2419426681 2.0572871559 2.4160897638
C -0.7832743791 1.3344042900 1.5612783322
C -0.7574738208 -0.1776653010 1.8772501082
C -1.1453339133 -0.3604658296 3.3584119471
C -0.2525314754 0.4778129394 4.2325505817
C 0.3898588221 1.5675086206 3.7784670187
C -1.1813118723 -1.8240831164 3.8067563330
C 0.6094401897 -0.7991027305 1.5088601681
C 0.5395341868 -1.6817586373 0.2616864546
C 1.8965927658 -2.0842791243 -0.2761182866
C 1.8175383410 -3.0781946056 -1.4264628973
C 3.1342588155 -3.1765219861 -2.2120843870
C 4.2371933001 -2.3549301683 -1.5278707390
C 3.7510024376 -0.9496849624 -1.3143466286
O 4.3409553613 0.0600264883 -1.6465837173
O 2.5354551794 -0.8409147790 -0.7415879366
O 2.8799135095 -2.6544807771 -3.5279899531
C 2.1636340704 3.3260508395 -0.2345361431
H -3.9750823989 -2.3612165131 -0.9004417789
H -3.0191975100 -2.2380691544 -2.3874207462
H -2.3585118490 -1.6510822802 -0.8530739203
H -4.8149183823 -0.4618832941 -2.2773585004
H -4.1177462041 0.1513012156 -0.7823618659
H -2.7272142599 0.0509569900 -3.5055228568
H -4.5457468793 1.7403769970 -3.4260182626
H -3.8769454034 2.4239708437 -1.9302579408
H -2.9674024089 2.5498759271 -3.4515860910
H 0.2966481140 1.0927247925 -0.2982783846
H -0.3233418369 3.3439054335 -1.2177002874
H -1.2621085253 3.6576099204 0.2543245557
H 0.8167998108 4.7375388461 0.6381292392
H 1.6993352113 3.5537830641 2.6212215384
H -1.7797122082 1.7157728282 1.8349975779
H -1.5375247881 -0.6600200750 1.2739815705
H -2.1737881995 0.0237917182 3.4603607346
H -0.1252618740 0.1694328859 5.2690035648
H 1.0509401538 2.1272616855 4.4376912241
H -1.8121131580 -2.4157003855 3.1347970082
H -0.1834219756 -2.2729222780 3.8239489264
H -1.5940272527 -1.8994536644 4.8179957639
H 1.3425197511 0.0000181775 1.3457773317
H 1.0026762791 -1.3945278048 2.3388528777
H -0.0219057135 -2.5979706269 0.4844951264
H -0.0007432785 -1.1733982035 -0.5467087685
H 2.5235523276 -2.4783970698 0.5346141093
H 1.0232748524 -2.7712947153 -2.1156595940
H 1.5389771330 -4.0521069856 -1.0135996381
H 3.4666119913 -4.2190135469 -2.2869512244
H 5.1480616473 -2.3320686971 -2.1294487107
H 4.4778616126 -2.8088628690 -0.5577768217
H 3.6843627652 -2.7689854851 -4.0514515839
H 3.0505446054 3.6861013849 0.2966985860
H 2.1316659498 3.8085718913 -1.2170503719
H 2.2772802332 2.2467441209 -0.3813608941
