27
CONF8
C 2.4081656830 2.1704338521 -0.7069315101
C 2.8498284762 0.7855172575 -0.3047979842
O 1.7091662964 0.1506566648 0.3606314076
C 1.8725087958 -1.1188494617 0.7295332527
O 2.8905009319 -1.7652490681 0.5973113816
C 0.6331467905 -1.7026355360 1.3826111992
N -0.5555305753 -0.8632506495 1.3154686948
C -1.3193952097 -0.5771516014 0.1825119305
C -2.3863358513 0.3026880045 0.4609806214
C -3.2848104087 0.7290108514 -0.5046909898
C -3.1212255931 0.2709772212 -1.8062611848
C -2.0751426096 -0.5903406935 -2.1196862895
C -1.1795197413 -1.0124509912 -1.1407352028
Cl 0.1069690667 -2.0906039360 -1.6628023815
S -2.4028913550 0.7764949676 2.1505354925
C -0.9457253705 -0.2154530351 2.4776288804
O -0.3984637117 -0.3023210911 3.5609144181
H 3.2364996033 2.6766928347 -1.2107300091
H 2.1233352000 2.7604886530 0.1684723466
H 1.5607184277 2.1237147460 -1.3968093297
H 3.6868744628 0.8025769159 0.3992686706
H 3.1229019148 0.1701586595 -1.1671448816
H 0.4434632870 -2.6893193370 0.9578443383
H 0.8649817326 -1.8393586663 2.4438593136
H -4.0904723975 1.4056808026 -0.2429723332
H -3.8067672060 0.5857732483 -2.5850278585
H -1.9427811257 -0.9438807972 -3.1356532953
