23
CONF12
C -4.4601161690 -0.3125416962 -0.2051337924
C -3.8570121179 -0.1411272430 1.0396125975
C -2.4903599723 0.1012228989 1.1319137287
C -1.7333780602 0.1653640298 -0.0346626686
C -2.3226886352 -0.0052413879 -1.2838763420
C -3.6919222159 -0.2406680162 -1.3646637215
N -0.3252028213 0.4404687029 0.0368328404
C 0.5142035826 -0.3966090665 0.8218675166
O 0.0491418503 -1.3489686966 1.4493809179
C 1.8921737584 -0.0120830554 0.7748117039
C 2.3534150060 1.0396112115 0.0065612953
C 1.3591646087 1.7410996191 -0.7509858152
N 0.0926212543 1.4501874882 -0.7341620773
N 3.6396859050 1.4465656727 -0.0432200418
Cl 3.0077800678 -0.9618560218 1.7157218813
H -5.5269743635 -0.5001425999 -0.2706446024
H -4.4525405303 -0.1882136379 1.9456411557
H -2.0164313647 0.2443132216 2.0957464298
H -1.7125849053 0.0465377992 -2.1792055073
H -4.1554024511 -0.3740237670 -2.3368358961
H 1.6500094078 2.5749010868 -1.3844236665
H 4.3623799586 0.8617073540 0.3460336665
H 3.9189622979 2.0999054776 -0.7571798941
