56
CONF324
C -1.1898528725 -4.5205085415 -1.1859508178
C -0.5160447819 -3.7727327967 -0.0349010362
C -0.2091550057 -4.6642952656 1.1676356385
N -1.2849154955 -2.5786847026 0.3603058472
C -2.5949446689 -2.5526633389 0.7953816976
C -3.4763372229 -3.5887292109 1.1232244770
C -4.7449654192 -3.2451301444 1.5716962713
C -5.1395285788 -1.9016461033 1.7050449368
C -4.2710183881 -0.8721936370 1.3798224981
C -2.9895299741 -1.1884762862 0.9050200383
C -1.8694756925 -0.3884645228 0.5170840949
C -0.8467084277 -1.2690548293 0.1822193140
C 0.4985420491 -0.9624743283 -0.2727158570
C 0.7889685847 0.0448553038 -1.1064938239
C 2.1827811581 0.4520254560 -1.4543521455
C 2.4787422102 1.8694846443 -0.9666289035
C 3.9091356363 2.3260532157 -1.2509715561
C 4.2127619009 3.6458122769 -0.5473024355
C 5.6321112786 4.0718116496 -0.8168788763
O 6.6094120631 3.3783210640 -0.6229013945
O 5.7118551581 5.3307895521 -1.2970121132
O 4.1364810836 2.5584003969 -2.6482788771
O 2.3639706443 0.4499392152 -2.8944814860
C -1.8073955505 1.0769687086 0.5719948683
C -0.7742166179 1.7337289842 1.2569428313
C -0.7134162481 3.1210137245 1.3138189673
C -1.7124879116 3.8478264397 0.6869524537
C -2.7609477659 3.2467639698 0.0137108560
C -2.7985990728 1.8557997599 -0.0405118977
F -1.6624372352 5.2061345811 0.7410419382
H -0.5260449441 -5.3180241554 -1.5322946539
H -2.1351225495 -4.9763751284 -0.8826974758
H -1.3827866942 -3.8423681331 -2.0223629034
H 0.4338913337 -3.3887789146 -0.4154389298
H 0.2843692289 -4.0884923841 1.9558138288
H 0.4600667536 -5.4714914628 0.8559387208
H -1.1128958199 -5.1170068627 1.5828118100
H -3.1968250592 -4.6317643833 1.0468074695
H -5.4429260513 -4.0347061873 1.8319217944
H -6.1359816054 -1.6725253464 2.0696181642
H -4.5743760575 0.1646002666 1.4896032624
H 1.3177768007 -1.5598963613 0.1278058825
H -0.0065899077 0.6456323347 -1.5450769297
H 2.9004482146 -0.2439301499 -0.9937020702
H 1.7691631736 2.5720575653 -1.4234363453
H 2.3090425940 1.8859066813 0.1162088328
H 4.6112935204 1.5611992625 -0.8811939070
H 3.5104401365 4.4181704009 -0.8708510162
H 4.1131988790 3.5094233067 0.5354195260
H 6.6518726785 5.5403405565 -1.4354275309
H 3.7507500242 1.7990496619 -3.1145021090
H 2.2864983476 -0.4627135847 -3.2010407490
H -0.0071588159 1.1462175726 1.7506066994
H 0.0839149579 3.6330401055 1.8419734432
H -3.5228680112 3.8535826976 -0.4635511448
H -3.6019355733 1.3681770793 -0.5838104970
