82
CONF462
C -4.8261663417 -0.3492150612 -3.0013449095
C -5.0864669063 0.4817807230 -1.7717405260
C -6.3374874300 0.7802960515 -1.4068396136
C -3.8231952952 0.9559336167 -1.0818241011
C -3.9640689716 1.9946043281 0.0610864023
C -3.0845921584 1.4895575054 1.2188192105
C -3.0697996571 -0.0399081841 1.0536396035
C -2.9731879218 -0.2197883400 -0.4823967028
C -1.5310676368 -0.2660872121 -1.0574039384
C -0.7975521904 1.0746000774 -1.1480120320
C 0.4734651092 0.9323044349 -1.9781764875
C 1.5054362541 -0.0447557500 -1.3859524714
C 2.5972225664 0.6826683620 -0.4796062301
C 2.0195446166 1.6977270174 0.5263231626
C 3.0809881137 2.3466129582 1.4181167582
C 3.8730323124 1.3156426543 2.2076194487
C 4.5097637075 0.2373714320 1.2952862465
C 3.4716740499 -0.3682454014 0.2800581118
C 2.5746981357 -1.4299898359 0.9258243691
C 1.7839408470 -2.2137647846 -0.1121016574
C 0.8037419745 -1.4031596232 -0.9795262072
C -0.6496266618 -1.3050509250 -0.3114371261
C -0.5991608715 -0.8885289067 1.1731716782
C -1.9695355041 -0.7644482775 1.8506432415
C -1.3421280597 -2.6845042460 -0.3893484968
C 0.6567411548 -2.1956528532 -2.3071347506
C 5.7159285537 0.8782239487 0.5739391335
C 5.1337261250 -0.8650959821 2.1739617640
O 2.9526783054 0.7752105545 3.1801738338
C 3.4599569025 1.4517054596 -1.5164859419
C -4.4303212205 -0.6169428314 1.4950872064
O -4.6705942902 -0.5102522966 2.9079452253
H -5.7563274830 -0.6794741407 -3.4699389278
H -4.2226956767 -1.2340128756 -2.7665077978
H -4.2507093610 0.2314374487 -3.7335587221
H -6.5701244651 1.3939658318 -0.5430826402
H -7.1815307835 0.4060743202 -1.9796800449
H -3.2383365019 1.4008287699 -1.8947261143
H -3.6705498335 2.9940395944 -0.2748520052
H -5.0004727639 2.0714683716 0.3980686606
H -2.0670758260 1.8840711657 1.1460178319
H -3.4658097458 1.7986329863 2.1995836945
H -3.4411164355 -1.1728933607 -0.7508046574
H -1.6585901448 -0.6127234810 -2.0951576322
H -1.4289857492 1.8351759876 -1.6190299455
H -0.5545045636 1.4560145074 -0.1546837869
H 0.9172857062 1.9208461216 -2.1299134648
H 0.1847781668 0.5795459637 -2.9776515902
H 2.1374763393 -0.3633939068 -2.2247711070
H 1.2949542705 1.2067876604 1.1793699745
H 1.4790945860 2.4825134432 -0.0150671425
H 3.7731937155 2.9573195056 0.8312000440
H 2.5977570538 3.0284636784 2.1276999432
H 4.6935385620 1.8197668880 2.7460345205
H 4.0712846933 -0.8923959483 -0.4825678972
H 3.1919508112 -2.1546389683 1.4625311206
H 1.9317996241 -0.9611994998 1.6712051170
H 1.2600232630 -3.0466742356 0.3711201099
H 2.5179381316 -2.6780610486 -0.7874458743
H -0.0237948129 -1.6283693345 1.7388755850
H -0.0633938025 0.0560899696 1.2709465868
H -2.3317387513 -1.7684051879 2.1005545342
H -1.8387518728 -0.2586893950 2.8149428129
H -2.2281096914 -2.7189485831 0.2467534073
H -0.6804777225 -3.4887914131 -0.0544372920
H -1.6712717561 -2.9125408775 -1.4069178084
H 0.3875923772 -3.2379750903 -2.1201153811
H 1.6137077452 -2.2010996642 -2.8376112588
H -0.0947083491 -1.7673317298 -2.9766029356
H 5.4770749888 1.7878623642 0.0267496941
H 6.1496837885 0.1648791631 -0.1349882836
H 6.4884876031 1.1312861983 1.3083585744
H 4.4223934050 -1.3642840069 2.8358177105
H 5.9254689495 -0.4316054556 2.7958321373
H 5.5886845861 -1.6377875721 1.5433923465
H 3.4419173594 0.1737973385 3.7533692137
H 3.9875692038 2.3034355557 -1.0886894548
H 2.8394595189 1.8494681494 -2.3233029068
H 4.2018708100 0.7859960914 -1.9696030209
H -5.2525103034 -0.1530567705 0.9368887489
H -4.4421087618 -1.6907923551 1.2728963702
H -4.8988794644 0.4065294995 3.1011355335
