63
CONF123
C 2.7246753449 0.5976891200 2.0383525615
C 1.3364544633 -0.0226677951 1.9227770932
N 0.5981788241 0.5390376951 0.7829325990
C 1.3152743002 0.2358378190 -0.4636732327
C 2.7076474665 0.8602511759 -0.4628102348
C 3.5004705827 0.3579236164 0.7435163280
N 4.8528622349 0.9106837232 0.7921905287
C 5.2413446148 2.2408379045 0.9319133250
C 4.5237254328 3.4236259087 1.0643190447
C 5.2473935195 4.6136103314 1.1862888103
C 6.6430578175 4.6237845076 1.1765945848
C 7.3697008782 3.4379628319 1.0440796514
C 6.6520403526 2.2598476635 0.9232164100
N 7.0674168206 0.9489649205 0.7796317264
C 5.9812379613 0.0966686785 0.6964560696
O 6.0045826582 -1.1248716246 0.5663694195
C -0.7641005092 -0.0132713567 0.7560327809
C -1.6879908822 0.6995188617 -0.2294574688
C -3.1589395662 0.3171667393 -0.0410593534
C -3.4516909527 -1.1906314074 -0.1861255309
C -4.9259933121 -1.4642403707 0.0684506930
C -5.3293364310 -2.0271246408 1.2818201085
C -6.6747894620 -2.2539935963 1.5649952312
C -7.6097022392 -1.9042248574 0.6077940078
C -7.2575482215 -1.3428372573 -0.6082509697
C -5.9075916356 -1.1268610435 -0.8684026078
F -8.9266583020 -2.1240709345 0.8680844793
C -2.9819821152 -1.7822241735 -1.5026975803
C -3.0781275781 -1.0916798008 -2.7149537445
C -2.6689056976 -1.6727877678 -3.9126441348
C -2.1562996989 -2.9575791382 -3.8766602748
C -2.0347173583 -3.6783607108 -2.7015646982
C -2.4513528380 -3.0757954620 -1.5178426851
F -1.7477523433 -3.5305426680 -5.0405376267
H 3.2618443832 0.1500218517 2.8817880340
H 2.6257770935 1.6707855242 2.2336890291
H 0.7670498515 0.1757555483 2.8377476364
H 1.4335461730 -1.1244037943 1.8278230883
H 1.4004153887 -0.8620374444 -0.6073252314
H 0.7481615499 0.6316680956 -1.3109907071
H 2.6124880767 1.9508876557 -0.4332804103
H 3.2307766754 0.5941186473 -1.3879123247
H 3.6472410903 -0.7231603599 0.6289280593
H 3.4412817407 3.4393843184 1.0748144208
H 4.7053440958 5.5477364904 1.2907348911
H 7.1748817658 5.5644881275 1.2734710436
H 8.4545038242 3.4349592834 1.0355642972
H 8.0194752472 0.6223701059 0.7379300746
H -1.1833531889 0.0939413919 1.7657278498
H -0.7348676837 -1.0990991906 0.5334467493
H -1.5849670150 1.7819881072 -0.0848175510
H -1.3888962546 0.4845331147 -1.2608250379
H -3.4915577280 0.6210251065 0.9598573356
H -3.7781260624 0.8784269638 -0.7512836005
H -2.9039092251 -1.7132723493 0.6054751626
H -4.5811496573 -2.2955104104 2.0225777117
H -6.9920765764 -2.6944381977 2.5041020693
H -8.0235051121 -1.0857311017 -1.3320326496
H -5.6231928523 -0.6937243892 -1.8222888447
H -3.4687334473 -0.0795114259 -2.7373809030
H -2.7387209416 -1.1395416162 -4.8546127586
H -1.6206222780 -4.6807804315 -2.7154144981
H -2.3616896701 -3.6254890039 -0.5846473519
