46
CONF5
C -0.1017873729 1.0768064217 -2.5827965303
C -1.2146432547 1.6568351822 -1.7127843884
C -0.7655900559 2.9050319505 -0.9539100349
C -1.8500877133 3.5124578374 -0.0819450112
O -2.2733245455 2.5697552861 0.9474913709
C -1.5401905703 2.5515562881 2.0697568848
O -0.6316808787 3.3062753589 2.3324515356
C -2.0281917444 1.4787432233 3.0478375392
C -3.1482767626 2.0400983122 3.9099832571
O -2.5481359544 0.3230577496 2.3949688192
C -1.7177147999 -0.3458045874 1.5366761512
C -2.3323067579 -1.3034222124 0.7259149717
C -1.5886511081 -2.0192058639 -0.1969233516
C -0.2256087920 -1.7712901048 -0.3183231586
C 0.3995848365 -0.8322569755 0.4856635713
C -0.3456459080 -0.1198356621 1.4240704969
O 0.4397357992 -2.4557358640 -1.3346245264
C 1.7852728652 -2.6471322426 -1.2230543611
C 2.3534597788 -3.3113170149 -0.1294342892
C 3.7077925094 -3.5588474001 -0.0556138494
C 4.5303223359 -3.1473949124 -1.1142787539
C 3.9764158494 -2.4968772684 -2.2240499249
C 2.6133583524 -2.2474866895 -2.2686018702
C 5.9295497315 -3.4000891931 -1.0589561040
N 7.0689182195 -3.6031731552 -1.0162094948
F 1.5541036019 -3.7264461234 0.8656102300
H 0.7762447439 0.8296198144 -1.9755484254
H -0.4284920154 0.1585440574 -3.0805155154
H 0.2139163484 1.7892016851 -3.3530965250
H -2.0820317908 1.9054315278 -2.3388438224
H -1.5524556643 0.9005574408 -0.9966246907
H 0.1055692970 2.6747318678 -0.3276924802
H -0.4438110855 3.6799848482 -1.6632809223
H -1.5103546054 4.4322386103 0.4016493185
H -2.7610308340 3.7064168423 -0.6548827152
H -1.1669662729 1.2146608402 3.6763494408
H -4.0050907726 2.3049626623 3.2854371889
H -3.4590251843 1.2895782360 4.6405922663
H -2.7975058985 2.9293908641 4.4392892746
H -3.3995660930 -1.4653123501 0.8270913431
H -2.0541532231 -2.7600998121 -0.8372374040
H 1.4622045553 -0.6381071100 0.3836908604
H 0.1615247508 0.6148165762 2.0379962724
H 4.1134227564 -4.0778689238 0.8047169192
H 4.6193528076 -2.1847802834 -3.0382934953
H 2.1615708054 -1.7382698711 -3.1126933704
