34
CONF66
C -2.8245508162 -2.7969563702 -1.5872454435
C -3.6114592898 -1.7444239406 -0.8428675452
O -2.7337297070 -0.9429577082 0.0099080311
P -2.0200905568 0.3894838368 -0.4860866632
S -2.3661020171 1.0388182303 -2.2669652850
O -2.2841647446 1.3639701463 0.7518492182
C -2.2470665962 2.8137683330 0.6121340929
C -0.8284480922 3.3314548519 0.5162598216
O -0.4132984155 0.0645235400 -0.1288360582
N 0.0507066947 -1.0121458449 -0.8778053287
C 1.2943961819 -1.2831781439 -0.6444443149
C 1.7305184535 -2.4438811379 -1.3695506820
N 2.1271320618 -3.3802828543 -1.9212582869
C 2.2792374752 -0.6338158349 0.2414663154
C 3.2779648484 -1.4277864703 0.8226699331
C 4.2281936971 -0.8594536446 1.6592668365
C 4.2105235036 0.5100991716 1.9054313147
C 3.2376392650 1.3082732645 1.3095518659
C 2.2713998628 0.7462034483 0.4866636887
H -2.2577765333 -3.4231107198 -0.8932304641
H -3.5178091806 -3.4335975206 -2.1468084401
H -2.1273030826 -2.3356027587 -2.2903116455
H -4.1433614459 -1.0763908940 -1.5276730116
H -4.3255359170 -2.1854716958 -0.1428311548
H -2.7473792663 3.1743649229 1.5139621658
H -2.8380368356 3.0957176789 -0.2657789782
H -0.8393059773 4.4260503033 0.5287022172
H -0.3616295973 3.0084865018 -0.4190792846
H -0.2290825711 2.9772903229 1.3600391927
H 3.3034605332 -2.4935501658 0.6189673784
H 4.9885518870 -1.4865349950 2.1124214804
H 4.9583537738 0.9562022018 2.5528322136
H 3.2317263528 2.3793127895 1.4838055923
H 1.5263258555 1.3751218808 0.0207528294
