44
CONF94
C -4.6015333655 -0.3500425843 2.6007766690
C -3.2969720462 -0.5919533581 1.8837852391
C -3.1087872517 -1.9758550699 1.2948077004
O -2.1481539831 -1.7388192822 0.2499582475
C -2.3611197570 -0.4096896257 -0.2256104677
O -3.2543966917 0.2206625046 0.6814405831
C -3.0948304311 -0.4827033814 -1.5844202040
N -2.2467837620 -1.0576186155 -2.6116341534
C -1.9779703733 -2.3573514270 -2.8475577664
N -1.0702212946 -2.4715415121 -3.8104359351
C -0.8071920742 -1.1724724314 -4.1287622464
N -1.4923829024 -0.2782187786 -3.4278255650
C -1.0102542774 0.2925467224 -0.3172679273
C 0.1681017561 -0.4522762702 -0.2133250232
C 1.4275866045 0.1170057627 -0.3419802581
C 1.5235701468 1.4849571736 -0.5763949547
C 0.3776360332 2.2664381942 -0.6883688745
C -0.8652425307 1.6612530921 -0.5702975786
Cl -2.2582217546 2.7234955401 -0.7637218728
O 2.7173875965 2.1385794353 -0.7763361666
C 3.8726060658 1.6190481927 -0.2118705042
C 3.9491066520 1.3460666193 1.1509071934
C 5.1493590909 0.8987864633 1.6907322239
C 6.2505546905 0.7440880918 0.8551557558
C 6.1827424841 1.0262115211 -0.5034889317
C 4.9765370616 1.4651625400 -1.0411330715
Cl 7.7713510879 0.1789649123 1.5394347574
H -4.6498063933 -0.9805912457 3.4937102115
H -5.4469631679 -0.5927328359 1.9502139932
H -4.6798032284 0.6940370755 2.9146946087
H -2.4379381247 -0.3324057537 2.5201120088
H -2.6794142221 -2.7011775291 1.9889811268
H -4.0515969103 -2.3576178646 0.8774501694
H -3.9751750956 -1.1175352447 -1.4525530969
H -3.4083010924 0.5095588757 -1.9107155193
H -2.4641220959 -3.1619170041 -2.3120813178
H -0.1026438081 -0.8757495846 -4.8956703196
H 0.0899418005 -1.5172544859 -0.0339501373
H 2.3159778347 -0.4991471302 -0.2664787638
H 0.4664454906 3.3305212904 -0.8727367963
H 3.0815466963 1.4827041732 1.7878608763
H 5.2255132853 0.6836016718 2.7504354037
H 7.0523188710 0.9014576274 -1.1384768009
H 4.8915423805 1.6895237207 -2.0988848905
