53
CONF456
C -1.6845802948 4.2319165856 -1.5588570598
C -0.8986399266 4.2144251147 -0.2632982975
O -0.6911078259 2.8495496558 0.1897496812
C 0.3278624718 2.1607567937 -0.3748954749
O 1.1300713800 2.6726122107 -1.1479674230
C 0.3139467111 0.7624069947 0.0461845656
C 1.3690585492 -0.0431449842 -0.2479962924
N 1.3446580266 -1.3636383233 0.1133004752
C 0.3979554291 -1.9211505289 0.9383579425
C -0.6890036989 -1.1785071572 1.3000883195
C -0.9443535765 0.2040673865 0.7043040394
C -2.0774895044 0.1489108806 -0.3216532159
C -1.9044169328 -0.6638204841 -1.4491573112
C -2.8674867923 -0.7681190002 -2.4432764686
C -4.0524716048 -0.0449216056 -2.3306517145
C -4.2592136766 0.7711397127 -1.2253373320
C -3.2778710717 0.8591097386 -0.2397640016
Cl -3.6332591708 1.9240138944 1.1226909424
C -1.6661773804 -1.7289211192 2.2338852634
O -1.6429657274 -2.8326790701 2.7642905973
O -2.6641905200 -0.8395044575 2.4740307763
C -3.6916815279 -1.2837664377 3.3820317090
C 0.7076428869 -3.3237596832 1.3640180324
C 2.6415597977 0.3579690528 -0.9778185624
O 3.6764007059 -0.6005956940 -0.7909568781
C 4.3890929739 -0.4051912262 0.4471972987
C 5.4057835676 -1.5150653479 0.5778255468
N 6.4192353081 -1.4205481602 -0.4850008682
H -2.6402859863 3.7146768466 -1.4334000320
H -1.1228843998 3.7503876257 -2.3637273159
H -1.8854549147 5.2680137180 -1.8489817367
H -1.4601439650 4.6817159780 0.5488246463
H 0.0697762987 4.7108356855 -0.3673823247
H 2.1754453298 -1.8969732899 -0.1128023664
H -1.2508389586 0.8796329681 1.5039246633
H -0.9793256211 -1.2268147240 -1.5382115480
H -2.6947383196 -1.4087299599 -3.3018957630
H -4.8176632852 -0.1114613340 -3.0971869888
H -5.1763290772 1.3405769335 -1.1230871054
H -4.3983686087 -0.4562666535 3.4440487250
H -4.1842220232 -2.1792016801 2.9936927054
H -3.2672285759 -1.4993428298 4.3662778598
H 0.8617666729 -3.3733050443 2.4448184302
H -0.1248787933 -3.9917536082 1.1359226992
H 1.6078524843 -3.6846420448 0.8602913682
H 2.4362346762 0.4060420449 -2.0531240866
H 2.9627772725 1.3533184081 -0.6576859441
H 4.8823483981 0.5775066684 0.4247457251
H 3.6899428291 -0.4312810754 1.2970044714
H 5.8998298837 -1.3999190705 1.5498472081
H 4.8699412646 -2.4802353674 0.5962494974
H 7.0963913975 -2.1669490879 -0.3655413601
H 5.9716973445 -1.5993742556 -1.3787576176
