65
CONF222
C 7.6302346550 -0.1682527249 0.1142303242
O 7.3271167397 -0.7106097861 -1.1754984402
C 6.2861650324 -1.5927693084 -1.2572159021
C 5.5066282863 -2.0020633960 -0.1742359259
C 4.4693667791 -2.9133825376 -0.3840734851
C 4.1859867902 -3.4295424762 -1.6464596336
C 4.9839592729 -3.0052973384 -2.7170068749
C 6.0198687835 -2.1021974218 -2.5337084823
C 3.0399937988 -4.3793010589 -1.8741269110
C 1.8366411674 -3.7094353203 -2.5547348600
N 1.2962265005 -2.5697878690 -1.8086801918
C 0.3749714503 -1.8022888312 -2.6547269182
C -0.1271363649 -0.5546713416 -1.9346705430
C -0.8178549017 -0.9375630933 -0.6307882246
C 0.1201563988 -1.7997927248 0.2160549625
C 0.6081454493 -3.0012665215 -0.5861303449
N -1.2532590300 0.2746716616 0.0679680191
C -2.1983211077 0.2078151801 1.0420226569
N -3.0115725130 -0.8166704316 1.2564107667
C -3.8535770343 -0.3908725302 2.2722797953
C -4.9074665139 -1.0554411490 2.8968451048
C -5.6084198775 -0.3833646285 3.8989716542
C -5.2719491046 0.9229270144 4.2753564545
C -4.2154880321 1.6042068312 3.6643735731
C -3.5220850702 0.9251543974 2.6737352210
N -2.4379659222 1.2839574361 1.8822596707
C -1.8063105110 2.5885350516 1.8138916109
C -2.2179497452 3.3948572470 0.5988020828
C -3.4739835983 3.2326470759 0.0132283874
C -3.8528982494 4.0018706414 -1.0834519468
C -2.9526492317 4.9317223257 -1.5744849546
C -1.6970285605 5.1210838038 -1.0231452139
C -1.3360466973 4.3388938712 0.0700898032
F -3.3124745226 5.6836506046 -2.6471602571
H 8.4758253231 0.5034107713 -0.0375112204
H 7.9116350898 -0.9595206644 0.8196131464
H 6.7796623100 0.3962655611 0.5150326883
H 5.6912911863 -1.6282984920 0.8256226354
H 3.8680152731 -3.2249657207 0.4663046067
H 4.7913008206 -3.3934738396 -3.7143858723
H 6.6379915031 -1.7825594520 -3.3670119290
H 3.3602736706 -5.1998927727 -2.5276198107
H 2.7412376211 -4.8357315930 -0.9252233999
H 1.0566236140 -4.4748336909 -2.7418908590
H 2.1613629256 -3.3379178850 -3.5348288481
H -0.4941887584 -2.4206765623 -2.9630358475
H 0.9044428727 -1.5105246074 -3.5688698261
H 0.7241548279 0.1047673446 -1.7163403196
H -0.8202117038 -0.0075722207 -2.5832739989
H -1.7207018087 -1.5156659534 -0.8618209565
H 0.9808889906 -1.1930603594 0.5277084184
H -0.3979790499 -2.1424764458 1.1181845221
H 1.2972339503 -3.5892491188 0.0274996279
H -0.2538156745 -3.6575446668 -0.8301094789
H -0.5416225587 0.9849868548 0.1735464287
H -5.1738675051 -2.0665447772 2.6044843936
H -6.4345060228 -0.8822808200 4.3962272499
H -3.9622039030 2.6184393223 3.9562862023
H -2.0721372369 3.1266520174 2.7305366629
H -0.7157335965 2.4738780440 1.8372068321
H -4.1672537414 2.4955746610 0.4074043062
H -4.8244057284 3.8835766495 -1.5507167392
H -1.0195323374 5.8545296576 -1.4464244383
H -0.3512811775 4.4648240305 0.5115408561
H -5.8411247719 1.4193225345 5.0547334812
