27
CONF208
C -3.9954708970 1.1069625795 -0.1446904935
C -3.6224326201 -0.3313650923 -0.4866424673
C -2.2468623088 -0.8325821585 0.0586137888
C -1.0181189332 0.0569041523 -0.3165481671
C 0.3666906754 -0.6483040172 -0.0924112701
C 1.5647172218 0.3632970049 -0.0112239516
C 2.9590786240 -0.3110002107 -0.2495657081
C 4.1712959264 0.5520596166 0.2351536186
F 4.2341791639 0.5834708898 1.5700151673
F 5.3021434876 0.0083461370 -0.2337595249
F 4.0667101722 1.8044958904 -0.2307969509
F 3.1163692804 -0.5335377442 -1.5715442975
F 3.0075039907 -1.4920330252 0.4087756170
F 1.5632815933 0.9358806032 1.2137055086
F 1.3936247880 1.3249252947 -0.9468775572
F 0.5855808527 -1.4984810692 -1.1212990515
F 0.3246148946 -1.3525879561 1.0600288755
F -1.1079348399 0.4110746802 -1.6182936787
F -1.0662140764 1.1793459081 0.4445738188
F -2.3328865339 -0.8920617109 1.4102269117
F -2.0318192228 -2.0866163552 -0.4171053909
F -3.6422196880 -0.5320384116 -1.8364453768
F -4.5515199879 -1.1890339307 0.0476304717
O -5.3047836510 1.3922701634 -0.5959508761
H -3.3132830624 1.7794905176 -0.6720863983
H -3.8785996776 1.2549052370 0.9363549634
H -5.9339862820 0.9878841315 0.0158718507
