35
CONF28
C -0.7442286266 -1.0741397982 3.0208329212
C -1.2920931178 -1.4240239628 1.6686109812
C -2.1196020391 -2.4811765618 1.4174307615
S -2.5811229541 -2.5633270438 -0.2528023652
C -1.6587130738 -1.1488712492 -0.6534683499
C -1.0343707290 -0.6678694763 0.4739998794
N -0.1854533972 0.4754623187 0.4629877834
C 1.2670501686 0.3337396279 0.1747040973
C 1.7728313988 -1.0739448831 0.4488861979
C 1.5478962186 0.7666345814 -1.2646787767
O 2.9554253211 0.8881334784 -1.4084361254
C 3.3156214604 1.3148460826 -2.7154869782
C -0.6382279263 1.7214987793 0.8074655291
O 0.0886384003 2.7086956659 0.8435440715
C -2.1125905181 1.8456266601 1.1651944958
Cl -3.0794903533 2.1693565506 -0.3467260808
C -1.6176948509 -0.6284688790 -2.0496684777
H -1.5499510206 -0.9328427188 3.7478969635
H -0.1594705084 -0.1513715951 2.9789892329
H -0.0918579982 -1.8663321389 3.4016963419
H -2.4922438971 -3.2157948779 2.1187432666
H 1.7796878883 1.0456431669 0.8313260249
H 1.2780154846 -1.8095856975 -0.1931404898
H 2.8444766190 -1.0987326689 0.2391227031
H 1.6185570506 -1.3610409811 1.4918904317
H 1.1564946231 0.0147716360 -1.9708708952
H 1.0544984413 1.7303176176 -1.4672983183
H 2.8812968212 2.2993037297 -2.9459610522
H 2.9812167852 0.5938438134 -3.4771460613
H 4.4051307267 1.3871879230 -2.7435280414
H -2.2323325574 2.7166354455 1.8082744288
H -2.5346694550 0.9505494783 1.6228716153
H -2.6153668037 -0.6207079720 -2.4978135050
H -1.2394185549 0.3956501815 -2.0509230129
H -0.9679390211 -1.2396659469 -2.6865186943
