44
CONF35
C -3.1877893533 1.6335506753 0.1074233117
C -3.1258871571 0.6242283860 1.2345468448
C -4.2031023538 -0.4397930314 1.1538619906
O -1.8099272929 -0.0263124215 1.1099069347
C -1.2459823679 -0.5098204082 2.2205203889
O -1.7459560857 -0.4947058516 3.3265503263
C 0.0896053737 -1.1999110462 1.9324529582
C -0.1832218572 -2.6825212794 1.6911077141
N 0.8258164915 -0.5462436751 0.8293898968
C 0.8592800404 -1.1278819869 -0.4775175637
C 0.0092604469 -0.6326016983 -1.4658983298
C 0.0564396484 -1.1727195141 -2.7432876550
C 0.9359934429 -2.2153525223 -3.0177871015
C 1.7751599784 -2.7200431149 -2.0388971880
C 1.7408854848 -2.1689933234 -0.7643987193
F 0.9799224000 -2.7398405898 -4.2558210823
Cl -0.9839712115 -0.5590599083 -4.0017738393
C 1.1039454802 0.7853050226 1.0281200026
O 0.7523476298 1.3573370669 2.0626001999
C 1.8585599939 1.5166372755 -0.0324723652
C 3.0404595017 1.0150682793 -0.5841812198
C 3.7433149553 1.7668824292 -1.5199013448
C 3.2609432182 3.0103838091 -1.9239609467
C 2.0847986362 3.5138481122 -1.3711157542
C 1.3930602165 2.7769833014 -0.4160708010
H -2.3689276932 2.3545249867 0.1854819606
H -3.1281985833 1.1304856882 -0.8632506343
H -4.1358167033 2.1766326028 0.1581711819
H -3.1484995795 1.1248175552 2.2071958538
H -4.1481957279 -0.9612291597 0.1928322309
H -4.0983695319 -1.1673794909 1.9628603013
H -5.1872691623 0.0309780746 1.2376006429
H 0.6817770427 -1.0817419849 2.8445568436
H -0.7236632179 -3.0730502742 2.5569555490
H 0.7495063944 -3.2407454917 1.5898309632
H -0.7932779413 -2.8389381468 0.7975198269
H -0.6786714894 0.1726682094 -1.2393314636
H 2.4552983191 -3.5267314744 -2.2894471274
H 2.4157197876 -2.5327474491 0.0020001872
H 3.4190190514 0.0479528186 -0.2709381252
H 4.6686384900 1.3804636951 -1.9352373124
H 3.8045370349 3.5892114021 -2.6639666055
H 1.7088726123 4.4838655458 -1.6805940035
H 0.4835639288 3.1665389125 0.0302316599
