54
CONF10
C -1.9809947288 1.5215209762 0.5851568946
C -1.7132591109 0.1325638719 -0.0129654903
C -1.1583743179 0.2537583999 -1.4265903010
C 0.2643443024 0.8437147276 -1.4385114097
C 1.2504084964 0.0376277636 -0.5689627399
C 0.6775598207 -0.0768743794 0.8751783980
C -0.7124522508 -0.7000714335 0.8118887168
C -1.4661998196 -0.9934276335 2.1127102820
C -2.9449076133 -1.1401445077 1.6604364430
C -2.9902023130 -0.7693055445 0.1576149441
C -4.2697826635 -0.0534254689 -0.2534595651
O -4.8713618102 0.7002209514 0.4918541969
C -4.7832067432 -0.2711348716 -1.6624285968
O -5.8422908420 0.5982369770 -1.9663300385
O -2.8034184160 -1.9158434333 -0.6863458199
C 1.5879177933 -0.8894160810 1.7919565598
C 2.9979591576 -0.2960587186 1.8272972725
C 3.5306127263 -0.2439590157 0.4307187302
C 4.6047613297 -0.9737287703 0.0823594567
C 5.1322717783 -1.0389045472 -1.2819229343
O 6.1071143605 -1.7302302325 -1.5720507802
C 4.4295229808 -0.2134357767 -2.2664573955
C 3.3552554789 0.5159973263 -1.9420176589
C 2.7448610556 0.5849676610 -0.5680461117
C 2.7859230034 2.0774396168 -0.1523717676
O 0.7276988702 0.8575024568 -2.7953243529
H -1.0541291337 2.0850530942 0.7058918900
H -2.4728192152 1.4733634121 1.5584502880
H -2.6331907518 2.1016541057 -0.0742074520
H -1.1181880182 -0.7306876735 -1.9037784972
H -1.7969302233 0.9029466352 -2.0439166939
H 0.2327658317 1.8764754142 -1.0570157382
H 1.3012830369 -0.9779985068 -0.9895084355
H 0.5980455156 0.9314235025 1.3059953827
H -0.6034034345 -1.6540509257 0.2766035035
H -1.0993137334 -1.8945311965 2.6098916384
H -1.3591267146 -0.1646474202 2.8216285983
H -3.3178561248 -2.1610320196 1.7986218222
H -3.6126416649 -0.4798124157 2.2177259495
H -3.9502017573 -0.1462573039 -2.3708929316
H -5.0924008053 -1.3261331470 -1.7534771731
H -6.0599443319 1.0492842996 -1.1333227942
H -3.3412319416 -2.6344582394 -0.3357500131
H 1.6400462823 -1.9265071547 1.4323647141
H 1.1663996799 -0.9146856511 2.8028831273
H 2.9539562453 0.7093188379 2.2675255346
H 3.6591408717 -0.8979221921 2.4573835561
H 5.1355251724 -1.5663983044 0.8236597336
H 4.8355876199 -0.2053792784 -3.2736659396
H 2.8848891157 1.1386600441 -2.6920810495
H 2.3403764917 2.6993572911 -0.9334890152
H 3.8243397532 2.3941094813 -0.0207712670
H 2.2496246414 2.2605329440 0.7819526933
H 0.0296366550 1.2407319421 -3.3389379808
