41
CONF9
C -7.8907868553 1.2486279482 0.9977486101
C -6.4727044350 1.4619672708 1.4794977725
O -5.5617387088 1.6285483152 0.3436032834
C -5.1283297019 0.5088595903 -0.2497419055
O -5.3703562842 -0.6202128648 0.1151275418
C -4.3190151852 0.8624072887 -1.4983720420
C -5.2695436281 1.0878435886 -2.6660074738
O -3.4653170067 -0.2212502918 -1.8624163754
C -2.4119094864 -0.5223234376 -1.0441679897
C -1.6425988607 -1.6205353113 -1.4450823699
C -0.5449692694 -2.0129481714 -0.6955469619
C -0.2298788888 -1.2965456168 0.4491002765
C -0.9745362347 -0.2117328431 0.8663514618
C -2.0796983405 0.1841324875 0.1140003498
O 0.8460440880 -1.7316260485 1.2606039517
C 2.0518101549 -1.3332248883 0.8932736922
N 2.4184845256 -0.5638435521 -0.0802793342
C 3.8100913683 -0.5185846822 0.0586664923
C 4.1858961081 -1.3004694504 1.1562710513
O 3.0339540329 -1.8340997798 1.7021189538
C 5.4809580065 -1.4824636917 1.5865315775
C 6.4355305405 -0.8078928128 0.8239269018
C 6.1140326570 -0.0152448494 -0.2802964988
C 4.7862550420 0.1395523000 -0.6786651955
Cl 8.1272518079 -0.9680217973 1.2824848098
H -7.9783877513 0.3182228587 0.4308039753
H -8.5579560642 1.1883142877 1.8631981824
H -8.2156138229 2.0829955430 0.3697932441
H -6.3698637855 2.3951157135 2.0359592113
H -6.1154852948 0.6293052758 2.0905010348
H -3.7308474071 1.7694008190 -1.3102271974
H -4.6941534664 1.3345124889 -3.5613399590
H -5.9443336251 1.9163630539 -2.4391417098
H -5.8583722250 0.1855165336 -2.8525356327
H -1.9203222374 -2.1584617077 -2.3450122282
H 0.0587035220 -2.8637095580 -0.9931616695
H -0.7015533067 0.3230322048 1.7696034134
H -2.6569655029 1.0361762248 0.4517108082
H 5.7410412884 -2.0943536439 2.4411555050
H 6.9054833009 0.4815471304 -0.8291166553
H 4.5318155667 0.7538527426 -1.5350391506
