38
CONF26
C -5.9639837726 2.1162891650 0.6018836582
C -4.9162022360 1.0422618922 0.3450587340
C -5.5447966576 -0.3378347268 0.5374197466
O -5.5252490600 -0.9693341196 1.5700988180
O -6.1642275850 -0.7231965746 -0.5863879321
C -6.8808566218 -1.9847865340 -0.5078378420
O -3.8710789568 1.2470079359 1.2928292535
C -2.7240551892 0.5104905145 1.1648305075
C -1.7587292204 0.7374444998 2.1517277190
C -0.5530327398 0.0545980736 2.1168860207
C -0.3207678705 -0.8516696940 1.0909355504
C -1.2647964826 -1.0930723023 0.1108602813
C -2.4798888412 -0.4090544963 0.1426681605
O 0.8643080422 -1.6082761495 1.0929982644
C 1.9666228055 -1.0653364641 0.5349745024
C 3.1521512654 -1.8259637616 0.5765418940
C 4.2959717429 -1.3054687132 0.0135683002
C 4.2308547763 -0.0381223322 -0.5734563308
C 3.0218254036 0.6404751522 -0.5725114357
N 1.9127905219 0.1302772365 -0.0253095194
C 5.4500885623 0.5366231057 -1.2207826008
F 5.3285148216 1.8605756026 -1.4589847450
F 5.7159480613 -0.0568348297 -2.4164490137
F 6.5572699149 0.3634631010 -0.4560040970
Cl 3.1667768036 -3.3968277400 1.3296973406
H -6.7881060888 2.0075730015 -0.1068291512
H -5.5121997393 3.1023747781 0.4710951225
H -6.3518777211 2.0296556056 1.6205581681
H -4.5310065023 1.1293719443 -0.6787247316
H -7.6584520084 -1.9245388791 0.2567481943
H -7.3184847017 -2.1286576441 -1.4943237010
H -6.1850853655 -2.7925172850 -0.2703988350
H -1.9697871874 1.4508449035 2.9411998351
H -1.0585231593 -1.8108112326 -0.6759979367
H -3.2084313452 -0.6110131399 -0.6334350599
H 5.2218192992 -1.8701870089 0.0323946012
H 2.9314418396 1.6258940960 -1.0202890154
H 0.2029688699 0.2219621469 2.8768514134
