123
CONF13
C -1.3466832778 4.0373424281 2.5042789985
C -0.3608819518 3.1891575691 1.6842916903
C 0.5334527051 2.4409334939 2.6323701207
C 1.8810832770 2.3431327979 2.5957878380
C 2.7158532830 2.8296256492 1.5229645221
C 4.0553719512 2.7327992218 1.3687116122
C 5.0380463073 2.2008139250 2.3652909417
O 5.9975640370 2.9049767454 2.6957800310
N 4.9466018286 0.9234838973 2.8643544983
C 3.9094846089 -0.0062149654 2.7044956967
C 3.4119409529 -0.6616395136 3.8054100471
C 2.1955529403 -1.4758009081 3.7516709922
C 1.3977551950 -1.4530312526 2.5864715264
C 0.0619129538 -1.8727879545 2.6797564180
C -0.4152274171 -2.4552502246 3.8638629407
C 0.3853958553 -2.6769981941 4.9781761163
C 1.6798804836 -2.1579245160 4.8936209761
O 2.5281031169 -2.2934771414 5.9460967392
C -0.1178569212 -3.3579655883 6.2145697011
O -1.7374482333 -2.7409137123 3.8493112582
C -2.3199412281 -1.9747664889 2.7302394845
C -1.0932057691 -1.5766304583 1.8702683471
O -1.2136679535 -1.0062314292 0.7966377246
O -3.2912014677 -2.7203380825 2.0785777874
C -2.8933786707 -3.5501541171 1.0295020660
C -3.3740845308 -3.3443485609 -0.1918044434
C -4.2687972533 -2.1921529563 -0.5649917415
C -3.7346302913 -1.4302244170 -1.7945189383
C -4.1608447721 0.0434146356 -1.8360575738
C -3.5775147560 0.9119289185 -0.6815547820
C -2.7232826246 2.0437675876 -1.2916027975
C -2.0283906261 2.9851354710 -0.2798343826
C -1.1166082452 2.2429629392 0.7201364292
O -0.1500623040 1.4681076887 -0.0224146649
C -1.2843326717 4.0903513582 -1.0410267194
O -1.7743705068 1.4980644407 -2.2264454407
C -4.6449126341 1.4566055069 0.2711880843
O -5.6234266242 0.0645105743 -1.8443674648
C -6.2380708643 1.0552229318 -2.5121799561
O -5.6590851074 1.9376411206 -3.1179502784
C -7.7295355520 0.9420530404 -2.3800391006
C -4.0551887002 -2.1397839430 -3.1112111296
O -5.5916110797 -2.6777068924 -0.8530449302
C -6.3148031171 -3.0024710020 0.3299660895
C -2.9846203804 -0.7422135319 3.3074868976
C 2.0535112241 -1.0186826793 1.3697689606
N 1.7265563428 -1.2556690189 0.1401047339
C 2.8391100333 -0.7299827360 -0.6553421825
C 2.3341479077 0.3036381362 -1.6848565489
C 3.4321810495 0.6914287198 -2.6645344333
N 3.9646942881 -0.4776829905 -3.3737553483
C 4.5409472835 -1.4197116377 -2.4087111567
C 3.4844998723 -1.9074761823 -1.4270223891
C 4.9606940451 -0.0407916568 -4.3592085151
C 5.4782032469 -1.1418973265 -5.2922018768
C 6.4218555798 -0.5124716148 -6.3202328945
C 4.3350956605 -1.8837401779 -5.9830978522
N 3.8257439421 -0.1350240394 0.2418968616
C 3.3528574432 -0.3305601419 1.4331622607
O 4.0213802738 -0.3928071403 4.9821847915
C 4.7360748746 3.3169690093 0.1609733341
H -0.8093311674 4.6374664989 3.2443326141
H -1.9167356134 4.7187878059 1.8677496148
H -2.0541570260 3.3923688634 3.0393512833
H 0.2500836311 3.8549460026 1.0675971355
H 0.0222809177 1.9792191566 3.4789796175
H 2.3688511056 1.8426053084 3.4281019686
H 2.1924882762 3.3182776352 0.7039463570
H 5.6054164247 0.7401001987 3.6127361349
H 2.0783476233 -2.6557885729 6.7239977597
H 0.4880206670 -4.2388543126 6.4581319272
H -1.1465145486 -3.6887589722 6.0722281755
H -0.1030457234 -2.6817998807 7.0787503324
H -2.2239142768 -4.3624933826 1.3067548884
H -3.1109838125 -4.0596269666 -0.9669306209
H -4.3231695575 -1.5009201800 0.2870336523
H -2.6437960253 -1.3938520721 -1.6757312366
H -3.8305485646 0.4563902737 -2.7921816651
H -2.9077962008 0.2629324581 -0.1075216368
H -3.3995944210 2.6694765678 -1.8904452880
H -2.8311421320 3.4531472751 0.3007215093
H -1.7306524725 1.5604699689 1.3256395345
H -0.1897304234 0.5495244445 0.2957732060
H -1.9139424813 4.4783651956 -1.8480736626
H -0.3609105596 3.7134129175 -1.4904703218
H -1.0291576810 4.9286613998 -0.3869654238
H -0.9937453902 1.2777553659 -1.6863006983
H -5.3057339936 0.6603013024 0.6244590365
H -4.1802709643 1.9154861348 1.1488039774
H -5.2649791723 2.2184878720 -0.2154715936
H -8.0166089326 1.2954988845 -1.3834367913
H -8.2164281077 1.5637111123 -3.1309248902
H -8.0517976562 -0.0976422449 -2.4689662613
H -3.5237722434 -1.6528922837 -3.9347906395
H -3.7492928824 -3.1897885980 -3.0844163435
H -5.1267559600 -2.1061592616 -3.3222852417
H -6.4350067359 -2.1165267921 0.9720746554
H -7.2994311166 -3.3560442572 0.0147465830
H -5.8169065215 -3.7933444352 0.9091426166
H -2.2715373662 -0.1678956608 3.9044171383
H -3.8248338681 -1.0520125423 3.9342722179
H -3.3486751683 -0.1235820879 2.4828503489
H 1.9695023569 1.1872033721 -1.1553277991
H 1.4933067831 -0.1470007489 -2.2228196892
H 4.2347556805 1.2351159832 -2.1290634645
H 3.0101785951 1.3813294746 -3.4055230905
H 5.3894129638 -0.9645120714 -1.8613690085
H 4.9275011922 -2.2910646477 -2.9475667129
H 3.9260894702 -2.6051219090 -0.7076349801
H 2.6870000482 -2.4250590933 -1.9694276730
H 5.8272466808 0.4380532512 -3.8574711618
H 4.4856039421 0.7325561692 -4.9796981100
H 6.0625280219 -1.8639432772 -4.7061972430
H 7.2415267847 0.0263707889 -5.8325955554
H 5.8791295059 0.1981152619 -6.9554354327
H 6.8574110160 -1.2791531726 -6.9687904515
H 3.6916796832 -2.3932705812 -5.2603455421
H 4.7253149149 -2.6296428250 -6.6837978026
H 3.7120661997 -1.1795115031 -6.5482217036
H 3.6478351693 -0.9561382718 5.6832169657
H 3.9983495608 3.6576806680 -0.5688412268
H 5.3816948536 2.5701362153 -0.3161425596
H 5.3753882742 4.1599018780 0.4440129873
