22
CONF447
C 2.4823622667 -0.0751067623 -0.4929223204
C 1.1739572440 -0.6134454936 0.0711210409
C -0.0542148119 0.1964543520 -0.3694321833
C -1.3770521650 -0.3878509777 0.1612628385
C -2.5969195999 0.3470985519 -0.3730300013
O -2.5919057387 1.7310915945 -0.0093637535
O -1.4623838008 -0.2963153210 1.5901777049
O -0.0806694248 0.2715062475 -1.7960388634
O 1.2273606807 -0.5621641921 1.5172702758
O 2.7267033607 1.2756781608 -0.0952294946
H 2.4503469103 -0.0866707865 -1.5852531961
H 3.3001921220 -0.7342723167 -0.1623564503
H 1.0485777561 -1.6555140259 -0.2649889571
H 0.0477894760 1.2272085303 -0.0128282580
H -1.4462787509 -1.4425840932 -0.1642945201
H -2.6189144650 0.3017266013 -1.4639841549
H -3.4957150521 -0.1540228022 0.0170695535
H -2.4520069471 1.7589457634 0.9473225312
H -0.5720104270 -0.4903585615 1.9332234109
H -0.1937137431 -0.6245233901 -2.1436791774
H 1.7968110251 -1.2799702588 1.8250948414
H 2.6876842539 1.2930891959 0.8708592287
