70
CONF28
C -2.8145846566 0.0629815643 -1.3495778564
C -4.3131154531 -0.1986067340 -1.0878294058
C -4.4603061546 -1.5583641463 -0.4843135687
C -5.4447603785 -2.5146525951 -0.4572635666
N -5.0134891895 -3.5933156390 0.3111558531
C -3.7442719231 -3.3461912735 0.7811237407
C -2.8503038246 -4.0757849023 1.5688276635
C -1.6158955849 -3.4833003762 1.8245014998
C -1.2582771042 -2.2121553179 1.3220148258
C -2.1499346172 -1.4798827913 0.5444030178
C -3.3865929402 -2.0730629516 0.2901622191
C -1.9273254272 -0.1150199872 -0.0759190789
C -0.4542301172 0.1167226378 -0.4274177860
C -0.2541273175 1.4553871167 -1.1574250169
C -1.1730150481 1.4963173019 -2.3842734041
N -2.5917690233 1.3506205136 -2.0297219825
C -3.1229127507 2.5275422984 -1.3200251818
C -2.9643080152 3.7749790294 -2.1351771022
C -2.4436934878 4.9097605181 -1.6736905962
C 1.1987329847 1.6331064964 -1.5638236256
O 1.5311746936 1.6956598258 -2.7465977626
N 2.1697285489 1.6134736374 -0.5761998118
C 3.5806647245 1.5034443045 -1.0128879120
C 3.9403104255 0.1669221616 -1.6703376820
C 3.5167498786 -1.0750719081 -0.8944825454
N 3.9919205051 -1.1100711744 0.4982673269
C 5.4539258858 -1.1634108487 0.5848053656
C 3.3950596053 -2.2513898934 1.1998955868
C 1.8624741177 1.8369522670 0.8131906755
O 1.0075125033 2.6543655680 1.1574353472
N 2.6069935358 1.1077261722 1.6595460826
C 2.4185103073 1.2122570484 3.1022041295
C 1.2576219205 0.3547391680 3.6028581397
H -2.4794315769 -0.7086915586 -2.0618371932
H -4.7043325078 0.5492333062 -0.3860193196
H -4.8702488145 -0.0896404405 -2.0247476384
H -6.4241005600 -2.5342471223 -0.9151378980
H -5.5483178637 -4.4305372665 0.4738988135
H -3.0946288977 -5.0572224772 1.9626558791
H -0.8944227899 -4.0224665066 2.4315632032
H -0.2734813552 -1.8197495203 1.5565883709
H -2.2321294211 0.6497351353 0.6562701385
H 0.1506526444 0.0741686420 0.4839711154
H -0.1123642058 -0.7005460567 -1.0799326749
H -0.5198660791 2.2677538141 -0.4761265500
H -1.0357511621 2.4335044038 -2.9310618634
H -0.9075653321 0.6784466423 -3.0657548243
H -4.1970490042 2.3667631470 -1.1676202500
H -2.6816450797 2.6922600714 -0.3207886145
H -3.3314741233 3.7189943187 -3.1606105771
H -2.0599750865 4.9802966678 -0.6581438160
H -2.3868127002 5.8006757300 -2.2917993711
H 4.2028119939 1.6806581394 -0.1337900129
H 3.7793449425 2.3115480031 -1.7250948939
H 3.4721906287 0.1092379256 -2.6568338577
H 5.0229224098 0.1713917569 -1.8413318441
H 3.8560707540 -1.9730015670 -1.4445482097
H 2.4203919881 -1.1180421564 -0.8608095205
H 5.7508986138 -1.2253344221 1.6361342723
H 5.8974214429 -0.2584058760 0.1607327877
H 5.8676843182 -2.0386171328 0.0522639489
H 3.6849232060 -3.2168597497 0.7486747968
H 3.7141856516 -2.2482803733 2.2472761873
H 2.3026871933 -2.1695542602 1.1685397280
H 3.1790258739 0.3217140080 1.2840517564
H 3.3541073987 0.8981402437 3.5774172816
H 2.2502892913 2.2634421552 3.3569568003
H 1.1521322750 0.4560393513 4.6876472151
H 1.4281473886 -0.7013336144 3.3703399101
H 0.3192404349 0.6658492359 3.1335798296
