39
CONF48
C -3.7927868449 -3.4249780505 2.9947070126
C -2.6182020149 -2.5339255053 2.7233340737
C -2.7447323068 -1.1404660951 2.6995199946
C -1.6580503593 -0.2901794869 2.4242455148
C -0.4018150770 -0.8909845655 2.2510192881
C -0.2378979097 -2.2651553934 2.2995305308
C -1.3481682017 -3.0696596106 2.5115626880
Cl 1.0153750731 0.1149567702 2.0075615855
N -1.8487935515 1.1079989115 2.3764834186
S -2.4228176727 1.7944637390 0.8925943690
O -3.4131231265 0.8781597985 0.3452079165
O -2.6784817016 3.1957907869 1.1925842729
C -0.9640125171 1.7189445702 -0.1627067361
N -0.7692671092 0.6559071942 -0.9390155453
N 0.4586085240 0.9465148377 -1.4366399146
C 1.2016370288 0.2007390724 -2.3086552130
C 2.4286654835 0.7055537079 -2.6604991032
C 2.8301079513 1.9484512428 -2.1002096648
N 2.1205212092 2.6716327753 -1.2600224072
C 0.9283633935 2.1667304688 -0.9241325236
N 0.0028484405 2.6585156586 -0.1035225209
O 4.0400113470 2.3728580392 -2.4924030356
C 4.4893021027 3.6332103483 -1.9506898235
O 0.6256669088 -0.9271515492 -2.6992723795
C 1.3642194408 -1.7478432142 -3.6207744640
Cl -4.2915464696 -0.4402139822 3.0850628714
H -3.4954865188 -4.4741956572 2.9412801660
H -4.2126221645 -3.2310586454 3.9870486538
H -4.5947444858 -3.2488982551 2.2710940315
H 0.7462451499 -2.6968282447 2.1639385158
H -1.2240533940 -4.1477211797 2.5324253403
H -1.0403467122 1.6447993786 2.6835112533
H 3.0891004529 0.1901107596 -3.3414282708
H 4.5547666417 3.5797665124 -0.8610738829
H 3.8029518449 4.4364348879 -2.2299843433
H 5.4731958107 3.7924352661 -2.3911253588
H 1.5512312725 -1.2040899702 -4.5527841167
H 0.7251950802 -2.6083582086 -3.8117728971
H 2.3089357807 -2.0722664244 -3.1717382885
