22
CONF58
C 2.4036321795 0.1253880044 -0.2548264858
C 0.9762693581 -0.4048793111 -0.1983175076
C 0.0915158755 0.4614758806 0.6982097047
C -1.2972194568 -0.1455547893 0.9560195293
C -2.0610803912 -0.5137157054 -0.3116431140
O -2.2095839818 0.5989682823 -1.2186719212
O -2.0630546905 0.7606299270 1.7642600955
O -0.0302907461 1.7814278865 0.1482913404
O 0.9680307472 -1.7334509385 0.3357611487
O 3.2427489164 -0.7681113739 -1.0036627680
H 2.8216159348 0.1562269949 0.7575968994
H 2.4184968344 1.1360698947 -0.6791803411
H 0.5600873051 -0.4050365997 -1.2220690866
H 0.5870341726 0.5871006004 1.6700537370
H -1.1726850510 -1.0622742814 1.5431795408
H -1.5209910493 -1.2909210353 -0.8609041104
H -3.0452192344 -0.9111495556 -0.0332550612
H -2.9043218651 1.1710052981 -0.8667253412
H -1.8616526691 1.6526854408 1.4441926034
H -0.6026457316 1.6911344552 -0.6339362025
H 1.6973575515 -2.2001007002 -0.0983961343
H 3.0019561506 -0.6869183801 -1.9359764246
