47
CONF5
C -3.9639590680 -0.8876168418 1.3192742693
C -3.5000068867 -0.2662527725 -0.0030301233
C -4.6352700906 -0.3173532781 -1.0308877529
C -2.2243799838 -0.9010017075 -0.6019884371
C -2.2117059500 -2.4520738929 -0.6065126153
C -1.1354144392 -2.8443397071 0.4038746928
C -0.0534454518 -1.7825175267 0.1905787953
C 1.0409836385 -1.8112038463 1.2671355554
C 2.1514803872 -0.8196760810 1.0472252634
C 2.2583232095 0.3306578360 1.8314199980
C 3.2497077270 1.2776400954 1.5950144294
C 4.1491559248 1.0668289672 0.5574771378
Cl 5.4026359695 2.2552546564 0.2457195629
C 4.0782349771 -0.0725799773 -0.2354967058
C 3.0803856883 -1.0065165135 0.0197613123
C -0.8699437152 -0.4667505098 0.0798874228
O -1.0328264177 0.0298296230 1.4054405191
C -0.1386613016 0.5856243655 -0.7787877072
N -0.9590055417 1.7711314091 -0.9959506786
C -1.5742235580 2.2048543538 -2.1162315339
N -2.3073663362 3.2786919856 -1.8604680794
C -2.1098636682 3.4601575608 -0.5300416664
N -1.2992790190 2.5742515607 0.0424772755
H -3.1669011700 -0.8976891916 2.0641228560
H -4.8024299468 -0.3100470189 1.7223058961
H -4.3231203563 -1.9124518583 1.1756569563
H -3.2808274670 0.7929961824 0.1868238339
H -4.3709398736 0.2233517182 -1.9460833217
H -5.5466364810 0.1338942609 -0.6256490663
H -2.1843267832 -0.5541015998 -1.6427141978
H -3.1896915748 -2.8808845872 -0.3746375346
H -1.9312443180 -2.8230790189 -1.5991459933
H -0.7575716002 -3.8622901854 0.2634121211
H -1.5198558162 -2.7650128328 1.4286043891
H 0.4106388871 -1.9631601195 -0.7912600532
H 1.4588851988 -2.8261351592 1.2800223794
H 0.5776216636 -1.6384383785 2.2416053856
H 1.5381179498 0.4993218263 2.6255340052
H 3.3219352883 2.1704648899 2.2053476071
H 4.7958818166 -0.2269075976 -1.0330812378
H 3.0267720295 -1.9011277221 -0.5957079591
H 0.0950703032 0.1696733863 -1.7634977743
H 0.7911877783 0.8911913454 -0.2918854662
H -1.4494305288 1.7242473250 -3.0776971408
H -2.5620957912 4.2628678501 0.0374476178
H -4.8714525145 -1.3529915799 -1.3034716476
H -1.3069436017 0.9603968979 1.3492782427
