54
CONF1065
C 7.2946576963 -3.6519378216 0.9950101826
C 6.0908041952 -3.4500772106 0.0627047719
C 4.8010920939 -3.6106802574 0.8109247030
C 4.1845825046 -2.5783925610 1.4967839153
C 2.9874354615 -2.8283026620 2.2054049551
N 2.4640933433 -4.0657176372 2.1972087398
C 3.1378186961 -4.9956094866 1.5222745289
N 4.2638762914 -4.8510699244 0.8336053219
N 2.3629834846 -1.8617481827 2.9264384166
C 1.0152798639 -2.0389003737 3.4454500005
C -0.0477367537 -1.8219861263 2.3822224595
O 0.0920656303 -0.4715484299 1.9433860803
C -0.6766829597 -0.0459792983 0.8891485817
C -0.4219643582 1.2549928670 0.4266060310
C -1.1580207448 1.7527798864 -0.6606414947
C -2.1472763855 0.9591020649 -1.2740681124
C -2.3781579422 -0.3204831980 -0.7757381186
C -1.6578963134 -0.8342070000 0.2948553256
C -2.9960278092 1.4546983103 -2.4186386123
C -4.1160675621 2.3668898957 -1.9329987487
O -4.8541807405 2.8120946538 -3.0608988331
C -5.9382285815 3.6595819978 -2.6981039435
C -6.6615666034 4.0747985172 -3.9616257362
C -0.8488292051 3.1444364826 -1.1506238169
C 0.6436171497 2.0896436348 1.0843684045
Cl 4.8611594953 -0.9524482852 1.5100704997
H 8.2298022976 -3.5644517952 0.4347864967
H 7.2581687278 -4.6443233891 1.4531228060
H 7.3019804313 -2.9031103316 1.7923325595
H 6.1044755725 -4.2051761152 -0.7276487774
H 6.1406459835 -2.4609246085 -0.4013448948
H 2.7041091285 -5.9959744907 1.5339944127
H 2.6528117167 -0.9137450480 2.7428189688
H 0.8703852231 -1.3217634867 4.2602311663
H 0.9193518583 -3.0495551502 3.8490442543
H -1.0481258232 -1.9903921906 2.8085390574
H 0.1068290995 -2.5171680728 1.5457836295
H -3.1399075873 -0.9397606990 -1.2413443653
H -1.8654736347 -1.8372148965 0.6455149471
H -3.4471786636 0.6014790359 -2.9350611057
H -2.4017968529 1.9912041591 -3.1657999789
H -4.7687192389 1.8142789177 -1.2347234362
H -3.7013944849 3.2281093025 -1.3802984254
H -5.5586929014 4.5440148526 -2.1574420215
H -6.6211365937 3.1245896388 -2.0157251817
H -5.9837693321 4.6106363146 -4.6317817879
H -7.0450847656 3.1968454162 -4.4885966573
H -7.5027761740 4.7309378083 -3.7190525978
H -1.1433913272 3.8995275732 -0.4117863137
H -1.3625819706 3.3811360715 -2.0819357540
H 0.2255757812 3.2715301755 -1.3194169135
H 0.3025517127 3.1169703755 1.2410479042
H 0.9306005486 1.6743610958 2.0497935795
H 1.5459105015 2.1411600798 0.4618228270
