47
CONF93
C -7.0843952649 -1.8678533636 1.2049228075
O -5.7504320352 -2.4159389458 1.4410918430
P -4.7629473635 -2.6948430076 0.2209259888
S -3.0455882448 -3.3812180974 0.7935475996
O -5.6705814849 -3.5846629344 -0.7469049271
C -5.1266733649 -4.0704885179 -2.0063609690
O -4.7089655770 -1.3155323039 -0.6533905243
C -3.8031378251 -0.2971023451 -0.3560964542
C -2.8291339082 -0.0018133130 -1.3028983380
C -1.9469140071 1.0426649725 -1.0641490605
C -2.0229593335 1.7615656654 0.1327704959
C -3.0025611657 1.4480329464 1.0758511229
C -3.9091891289 0.4215050373 0.8266290869
S -0.9397456069 3.1477566165 0.4534099019
C 0.6814552021 2.4727392937 0.1130919706
C 1.0200101218 1.1530850208 0.4242129132
C 2.3089928349 0.6914350887 0.1873820577
C 3.2556690986 1.5650021844 -0.3337186892
C 2.9413237702 2.8815026956 -0.6352162370
C 1.6433297749 3.3331563719 -0.4222932285
O 4.5471628895 1.1109672806 -0.6220209619
P 5.6285753581 0.8283579765 0.5534258317
S 5.6113958725 2.0708767132 2.0457870554
O 6.9751534363 0.7200949221 -0.3014783726
C 7.6778050848 1.9267931575 -0.7101199586
O 5.3285140651 -0.7093795599 0.8690236664
C 5.9924443520 -1.3675268857 1.9851592504
H -7.7051253037 -2.6096751395 0.6985949160
H -7.0167022611 -0.9524092620 0.6112294189
H -7.4854246766 -1.6461429178 2.1932448525
H -4.8713265946 -3.2274889947 -2.6537704236
H -4.2459879762 -4.6897056935 -1.8170335899
H -5.9188416715 -4.6667359369 -2.4577457028
H -2.7767742812 -0.5804597644 -2.2189167356
H -1.1926867557 1.2911928964 -1.8034573183
H -3.0588879132 2.0009400864 2.0075559999
H -4.6767026689 0.1745241103 1.5524634669
H 0.2802993384 0.4808086554 0.8453943668
H 2.5795011113 -0.3341349152 0.4142992198
H 3.7009582108 3.5379817984 -1.0455248509
H 1.3817139992 4.3556504903 -0.6748094760
H 7.0381635425 2.5329518619 -1.3575923138
H 7.9815190245 2.4987413105 0.1701691223
H 8.5527157998 1.5831496583 -1.2610696490
H 7.0727669931 -1.3894550410 1.8192201635
H 5.7586800864 -0.8477691814 2.9175975433
H 5.5935333409 -2.3811405051 2.0046131154
