46
CONF69
C -4.4629408899 -1.3178289172 -0.0105199323
C -3.2748545953 -2.1189879812 0.4701522660
C -1.9056811052 -1.9103667078 -0.1362233135
C -2.1956877755 -1.4941299431 1.3303545508
C -2.1431134557 -0.0590588428 1.6772763852
O -2.6577105899 0.8601070250 1.0750568956
O -1.3742493564 0.1180801938 2.7840906790
C -1.0270911917 1.5054419935 3.0655964141
C -0.0378189715 2.0122969695 2.0530337968
C 1.1745352780 1.3392379951 1.8914304790
C 2.0687579390 1.7585292562 0.9173477163
C 1.7847501589 2.8563312965 0.1065346710
C 0.5791144458 3.5241461168 0.2774923898
C -0.3350454012 3.1030249980 1.2400245501
O 3.2771292531 1.0937219424 0.8330219548
C 3.7114697088 0.6699768685 -0.4094332975
C 5.0888583455 0.5938510088 -0.5941121301
C 5.5873400271 0.1115865852 -1.7987804533
C 4.7207634985 -0.2845875770 -2.8145312265
C 3.3455424050 -0.2036926213 -2.6137430358
C 2.8303967461 0.2685999304 -1.4111119543
C -1.6432432980 -0.8926983821 -1.1538365578
C -0.8049876666 -1.0396122661 -2.1807662089
Cl -0.5427125382 0.2273241945 -3.3486723112
Cl 0.1238408062 -2.4801151961 -2.4933806046
C -3.6207313856 -3.5502329839 0.8255654361
H -5.2448163029 -1.3241303118 0.7562332147
H -4.2188320718 -0.2796255182 -0.2257514906
H -4.8720528391 -1.7845415948 -0.9130728459
H -1.2883481321 -2.7999902699 -0.2093099893
H -1.7349988460 -2.1372670598 2.0726452096
H -0.5949040337 1.4645522848 4.0683732750
H -1.9324102187 2.1178794326 3.0764300734
H 1.4221739657 0.4768599075 2.5020458131
H 2.4993652059 3.1680744097 -0.6475094245
H 0.3461301452 4.3752739765 -0.3540908771
H -1.2922941685 3.6030987334 1.3420877011
H 5.7469744066 0.9098194033 0.2078510166
H 6.6612127098 0.0514297451 -1.9446379288
H 5.1140184115 -0.6559442615 -3.7546231158
H 2.6584687528 -0.5187434907 -3.3924088116
H 1.7590514180 0.3247474684 -1.2510676901
H -2.1456308991 0.0648813896 -1.0700499691
H -2.7416069879 -4.1097168609 1.1581828747
H -4.0427178353 -4.0639844430 -0.0447502266
H -4.3654117752 -3.5736179274 1.6285796398
