47
CONF5
C -2.0179340653 1.5263820534 -1.4416231359
C -1.9112324188 0.0434921625 -1.1662216810
C -3.1445466929 -0.7555652926 -0.8226851532
C -2.1607754298 -0.3791426334 0.2850392386
C -1.3602476572 -1.4495177080 0.8980637983
O -1.1550967215 -2.5557637741 0.4587779084
O -0.8178621180 -0.9961245325 2.0798925506
C 0.1209405585 -1.8929192582 2.6951444065
C 0.0185870311 -1.6904444773 4.1399837353
N -0.0304262458 -1.5618811600 5.2862120041
C 1.5427304793 -1.6555554430 2.1998565099
C 1.7817436069 -0.7721649540 1.1557553102
C 3.0869741754 -0.5994773011 0.6997219838
C 4.1435113121 -1.3014930991 1.2689441851
C 3.8851046426 -2.1856513010 2.3099190337
C 2.5911028435 -2.3648307067 2.7841766562
O 3.3906930847 0.2055252876 -0.3764230702
C 2.6483955698 1.3440987717 -0.6262402831
C 2.2273478537 2.1990714246 0.3903411542
C 1.5530421824 3.3678502874 0.0529363017
C 1.3102756914 3.6891552416 -1.2804503512
C 1.7462738422 2.8290109303 -2.2846031466
C 2.4121701833 1.6510899628 -1.9628569104
C -4.4872853823 -0.1708256802 -0.8087889131
C -5.6020698037 -0.7900146179 -1.2016585011
Cl -7.1570717379 -0.0089151033 -1.1541378684
Cl -5.6476587750 -2.4199125676 -1.8015988071
C -0.8432350127 -0.6456432037 -1.9837905079
H -1.0400633615 1.9996953641 -1.3027756542
H -2.7303068686 2.0312214536 -0.7854477915
H -2.3309448594 1.6933563968 -2.4783172700
H -3.0856251232 -1.8032554183 -1.1015080581
H -2.4411595785 0.4235066766 0.9585560344
H -0.1717215894 -2.9266238457 2.4629780445
H 0.9726676440 -0.2152868322 0.7003890041
H 5.1470284019 -1.1483103832 0.8885615167
H 4.7048252673 -2.7346001876 2.7610791412
H 2.3985922921 -3.0447454756 3.6081782133
H 2.4317877961 1.9549479641 1.4269684718
H 1.2272873507 4.0380435063 0.8419598303
H 0.7888770980 4.6058229887 -1.5341783182
H 1.5650478381 3.0715092504 -3.3267903568
H 2.7612280639 0.9681887593 -2.7297375782
H -4.6076307497 0.8478472458 -0.4545502288
H -1.0743301737 -0.5270650503 -3.0478949615
H -0.7728697777 -1.7112568457 -1.7614229175
H 0.1338608573 -0.1828281506 -1.8026868527
