57
CONF194
C -1.4981745256 2.6681451133 -0.7533358961
C -1.1048212989 1.2363152142 -1.1036531983
C -2.0270199417 0.2366528524 -0.3673823553
C -1.6756576822 -1.2150641987 -0.5566044686
C -0.9207096528 -1.8900095402 0.4065361146
C -0.5970510472 -3.2347737791 0.2451740918
C -1.0155288739 -3.9237447663 -0.8903432071
C -1.7705081089 -3.2617968960 -1.8568663747
C -2.1016028347 -1.9201362205 -1.6877486119
C -1.1289288383 1.0097698642 -2.6086216293
C -2.3148096823 1.2566204930 -3.3101245016
C -2.3925196020 1.0267271874 -4.6791500762
C -1.2852586076 0.5438954518 -5.3739062145
C -0.1031967450 0.2978214662 -4.6840280286
C -0.0244701508 0.5284518980 -3.3113386187
O 0.2831932435 0.9556611781 -0.6777654641
P 1.0995184209 1.6409903187 0.4879353285
O 1.3631778786 3.0941702523 0.4603869291
O 2.4880113654 0.8333278328 0.4391171603
C 2.5860189655 -0.5663265522 0.5001137045
C 2.5525510738 -1.2018193405 1.7339183912
C 2.7435091391 -2.5806724081 1.7788386352
C 2.9658039977 -3.3001921943 0.6071444942
C 2.9961224756 -2.6399693337 -0.6190289696
C 2.8065175841 -1.2619830523 -0.6800907258
O 0.3029037411 1.1097568481 1.7940205479
C 0.4426280950 1.6592948012 3.0698589688
C -0.7048872207 1.6730326576 3.8535109309
C -0.6277014434 2.1611090020 5.1542072226
C 0.5824791763 2.6328376778 5.6589210131
C 1.7206600085 2.6096178215 4.8571813461
C 1.6623040914 2.1185130257 3.5545399647
H -1.4743769548 2.8263716083 0.3291160484
H -2.5191293146 2.8520602110 -1.0938023301
H -0.8316663657 3.3831954791 -1.2402438590
H -3.0427546007 0.4272396005 -0.7296975029
H -2.0068276468 0.4903995221 0.6967926649
H -0.5867145064 -1.3559623468 1.2913812598
H -0.0114888604 -3.7416295081 1.0052480171
H -0.7623151757 -4.9718369266 -1.0179911757
H -2.1105684279 -3.7932707441 -2.7407328913
H -2.7006913521 -1.4139463877 -2.4391929501
H -3.1948026559 1.6194497136 -2.7880102692
H -3.3226492588 1.2237712930 -5.2031346911
H -1.3455664588 0.3626278187 -6.4423686205
H 0.7676746115 -0.0788391964 -5.2118664280
H 0.9018244004 0.3274471430 -2.7888545603
H 2.3925028392 -0.6271382491 2.6399414587
H 2.7213205714 -3.0904673663 2.7368038137
H 3.1138716756 -4.3743120580 0.6494149594
H 3.1699785403 -3.1958232050 -1.5348066505
H 2.8386932762 -0.7265216758 -1.6226348562
H -1.6374341848 1.3031391307 3.4406342289
H -1.5200339522 2.1744281541 5.7718505374
H 0.6382857751 3.0153162344 6.6725975765
H 2.6679160287 2.9723751963 5.2431149372
H 2.5523978907 2.0957032075 2.9350246685
