78
CONF257
C -0.9034923612 -0.4284949025 -1.9558003873
C -0.2144542230 -0.5537988631 -3.3084808563
O -0.8918553947 -1.6941076918 -3.9378867075
C -1.4751569336 -2.4838707902 -2.9950630491
O -2.0288010938 -3.5149522091 -3.2954995126
C -1.2296985384 -1.8793380449 -1.6353401452
C -2.2814825284 -2.0004295673 -0.5295513026
C -3.6932067235 -1.6606941792 -0.9963694188
C -4.1792666551 -0.3524867554 -0.9381869101
C -5.4592266279 -0.0721644045 -1.4107052974
O -6.0505370482 1.1629783814 -1.4071782709
C -5.2820483518 2.2595164209 -0.8971426553
C -6.2682974453 -1.0844962205 -1.9373574285
O -7.5277630204 -0.8233797871 -2.3976991339
C -5.7830110410 -2.3967757853 -1.9796548747
O -6.6445016538 -3.3189667850 -2.4972624119
C -6.1763812098 -4.6701108879 -2.5869131694
C -4.5005685653 -2.6792565293 -1.5057150722
C -1.8559093311 -1.1057892686 0.6304204234
C -2.5146774667 -1.3146119494 1.8589216581
C -2.2341060113 -0.4588541325 2.8949092004
C -1.3530174404 0.6079375136 2.7467278534
O -1.3106222242 1.3407550390 3.9064857338
C -2.0015307963 0.5344599081 4.8834787482
O -2.7753827396 -0.4423144797 4.1532995383
C -0.7064237576 0.8442701390 1.5607764935
C -0.9462820308 -0.0452262840 0.4880414952
C -0.1590298319 0.1828015510 -0.7884057221
O 1.1430784067 -0.4812987023 -0.7679219263
C 1.9713525080 -0.2036886158 0.3062586254
O 2.3672936415 1.1758622391 0.2277562494
C 3.1944985356 1.5203816662 1.3343109274
C 3.5198771692 3.0019454331 1.2842496007
O 4.4260852120 3.2993564778 2.3642306384
C 5.6057196252 2.5144870814 2.3602967722
O 5.3347365563 1.1148402387 2.3611414446
C 4.5033342940 0.7373217470 1.2551557270
C 4.2110727765 -0.7481295137 1.3105495416
O 5.3745869784 -1.5677244446 1.2027714096
C 3.2038448044 -1.1002709342 0.2051520957
O 2.7762086095 -2.4508808131 0.3307109157
C 6.5353878961 2.9057099573 1.2382048371
C 6.6166635966 4.1012211016 0.5759738504
C 7.6899499247 4.1524562174 -0.3554054267
C 8.4239298085 2.9991177916 -0.3851023787
S 7.8053128783 1.8257628257 0.7308380591
H -1.8378946772 0.1302852666 -2.0883187366
H 0.8469051626 -0.8008120882 -3.2198288613
H -0.3537648194 0.3050411763 -3.9661205108
H -0.3066474487 -2.3637343045 -1.2780051304
H -2.2947469373 -3.0383637595 -0.1777949833
H -3.5728616412 0.4311749686 -0.5015711848
H -5.0292743850 2.1016697497 0.1578271228
H -5.9186244773 3.1389662684 -0.9958814884
H -4.3649856754 2.3971512646 -1.4816546355
H -7.6866140182 0.1262203180 -2.2894314473
H -6.9935912155 -5.2349558149 -3.0364034601
H -5.2865481888 -4.7369962030 -3.2240793066
H -5.9508117420 -5.0759961019 -1.5936614435
H -4.1140685932 -3.6890737005 -1.5414384181
H -3.2387061228 -2.1157361085 1.9678209941
H -2.6738054072 1.1664220792 5.4666207470
H -1.2644055415 0.0142437568 5.5100112369
H -0.0265819204 1.6821538653 1.4416143967
H 0.0092620540 1.2565436544 -0.9321772832
H 1.4635067459 -0.3748715081 1.2718774727
H 2.6870441183 1.2857341312 2.2854143751
H 2.6342588851 3.6188368780 1.4527738078
H 3.9631782668 3.2548677528 0.3114090876
H 6.0756111164 2.7059914920 3.3309532459
H 5.0029802718 0.9805597980 0.3018750792
H 3.7686931843 -0.9944323366 2.2846248589
H 5.8423755895 -1.3226038281 0.3913301455
H 3.6730101174 -0.9247398101 -0.7783557409
H 3.5742705920 -2.9847125901 0.4524330849
H 5.9256271737 4.9167130044 0.7540173741
H 7.9074445771 5.0109543504 -0.9800340875
H 9.2835629596 2.7619011991 -0.9978661714
