46
CONF3
C 0.8416720323 -2.9238679094 1.9134401086
C 1.0997488541 -2.7411153367 0.4224702941
C -0.1661584211 -2.7578714495 -0.4123283554
O -1.0405139423 -1.6781121904 -0.0214240392
C -0.4409942565 -0.4568966491 -0.0152295515
C 0.9567169998 -0.3146695119 0.0371140480
N 1.7623678630 -1.4400424464 0.1667113925
C 3.0931902017 -1.3356851794 0.1762932588
C 3.7490236895 -0.1277202784 0.0599281097
C 2.9985327726 1.0932545914 -0.0593231534
O 3.5587647362 2.2241105368 -0.1524016689
C 1.5532718717 0.9605491796 -0.0709054176
C 0.7291076123 2.0876971063 -0.1642542099
C -0.6316933605 1.9259573209 -0.1338168136
C -1.2834081466 0.6727173845 -0.0764514224
N -2.6549189578 0.4970067800 -0.1247982046
C -3.3274243578 -0.1586212415 1.0060826654
C -4.5985266615 -0.8395273686 0.5259727710
N -5.4829766321 0.1288537429 -0.1306514349
C -4.7825662629 0.7344397592 -1.2673480736
C -3.5253892807 1.4598339663 -0.8022342475
C -6.7126449189 -0.5249281415 -0.5777998243
F -1.3997810636 3.0419602856 -0.1371502538
C 5.2282340077 -0.1277943950 0.0765366533
O 5.9044723512 -1.1421470913 0.1751408260
O 5.7955621451 1.0782876739 -0.0219028853
H 0.1701338358 -2.1487299825 2.2933769799
H 0.3800203005 -3.9005296309 2.0817622224
H 1.7818231062 -2.8792870772 2.4687784478
H 1.7698168717 -3.5205700719 0.0474745087
H -0.7284138655 -3.6760476304 -0.2396542853
H 0.0696032372 -2.6572238032 -1.4787188536
H 3.6492628177 -2.2612119647 0.2878905342
H 1.1638062574 3.0789902036 -0.2117234421
H -3.5792665169 0.5964328362 1.7701375607
H -2.6609738613 -0.8947838227 1.4578617237
H -4.3289430857 -1.6672903125 -0.1607394999
H -5.1218474819 -1.2715676947 1.3870582533
H -4.5058694666 -0.0296558655 -2.0213424472
H -5.4496089391 1.4588770975 -1.7492242673
H -3.0048303015 1.8692389867 -1.6716702352
H -3.8113128308 2.2901415367 -0.1379626707
H -7.3709847756 0.2113689267 -1.0508065843
H -6.5193984621 -1.3354245744 -1.3060281042
H -7.2349683538 -0.9559992187 0.2828760405
H 5.0326863217 1.7550538152 -0.0906390194
