52
CONF18
C -3.1600554603 -1.6803724855 0.6162365574
O -3.3973688823 -0.6224141974 -0.3229797533
C -2.3200566435 0.1107499824 -0.7193309696
C -1.0088756092 -0.1269094378 -0.2999986773
C 0.0270787677 0.6871530725 -0.7593070682
C -0.2369942139 1.7238710662 -1.6550916294
C -1.5471842803 1.9615073940 -2.0780185658
C -2.5956844416 1.1529557312 -1.6150583442
O -3.8771396960 1.3528156404 -2.0714876337
C -4.6212294350 2.2864427628 -1.2604631465
O -1.9108715325 2.9469307052 -2.9443874351
C -0.8740897580 3.8126210486 -3.4275280664
C 1.4601912688 0.4690642659 -0.2871162033
C 1.8148258885 1.2619065088 0.9728673555
C 1.1193407199 0.7067085280 2.2044361874
C 1.2855893126 1.8564671755 3.1886266781
O 1.2184308652 3.0551070528 2.3425187226
C 1.5275450925 2.7418671114 1.0560964219
O 1.5851903548 3.5909677731 0.1976802926
C 1.7229367893 -0.6389821746 2.5541548915
C 1.8272390371 -1.5132206232 1.3109496459
C 2.0585952024 -2.8905301840 1.5206331661
C 2.1779970962 -3.6949906122 0.4163281074
C 2.0932321907 -3.1852124462 -0.8753647860
C 1.8864406048 -1.8493313599 -1.1078707014
C 1.7477374517 -0.9974909618 0.0081972366
O 2.3029512294 -4.1894334453 -1.7869442818
C 2.2533220003 -5.4090816940 -1.0150044360
O 2.4484345972 -5.0409864961 0.3664688836
O 0.9434560142 -1.3423245638 3.5335086186
H -2.7295674802 -1.2907182407 1.5462225920
H -4.1380860970 -2.1178769022 0.8181931276
H -2.4958557132 -2.4424987062 0.1921610983
H -0.7847571633 -0.9513873563 0.3647438249
H 0.5802713537 2.3403355995 -2.0055046961
H -5.6103835426 2.3722477493 -1.7143799520
H -4.1299421048 3.2663164011 -1.2547318775
H -4.7155334021 1.9125950223 -0.2342251669
H -0.3880840028 4.3429605096 -2.6003925900
H -1.3717434661 4.5288291999 -4.0818455366
H -0.1257788963 3.2501709548 -3.9977008217
H 2.1240500723 0.7917542298 -1.0974272499
H 2.9062446917 1.1821824170 1.1216914265
H 0.0524853083 0.5717076307 1.9868167994
H 2.2667364219 1.8447512550 3.6781643290
H 0.4920351127 1.9446168353 3.9311736454
H 2.7411490698 -0.4786657994 2.9490264529
H 2.1343664942 -3.2913273456 2.5243408540
H 1.8232426346 -1.4515582445 -2.1156904636
H 1.2617950345 -5.8676339868 -1.1305018953
H 3.0600947250 -6.0723084224 -1.3317431849
H 1.0962768423 -0.9203487310 4.3888578362
