65
CONF914
C -2.2685813289 5.0492513201 1.0524876496
C -3.0796436111 3.9521339191 0.3653164681
C -2.2817781262 3.1277417281 -0.6735169989
C -1.8522709737 3.9478747286 -1.8859151572
C -1.0874147433 2.4857679675 -0.0002687412
O 0.0751992896 2.7883684052 -0.1892354958
O -1.4802455769 1.5288722768 0.8663414731
C -0.4380796755 0.8440075210 1.6263403296
C -0.1596910511 1.6021760486 2.9125376191
C 0.9728755543 0.9233641262 3.6984080009
C 0.8049098370 -0.5673209288 3.7030478812
C -0.0451918652 -1.2493963418 2.9119240163
C -0.9495069959 -0.5583549082 1.9089677449
C -1.1062753656 -1.4254468146 0.6420435253
C -1.7589973912 -2.7602583178 1.0574332328
C -0.9559442428 -3.4025303836 2.1568577217
C -0.1611021259 -2.6978668179 2.9804306930
C -1.9976682337 -3.7151099636 -0.1152596442
C 0.2372781343 -1.6127451123 -0.1013222411
C 0.2133168530 -0.9828368544 -1.4953931837
C 1.5565433199 -1.0389479598 -2.2010701373
C 2.0457462754 -2.4403611471 -2.5052756043
C 3.2857867305 -2.3701750136 -3.3798693453
C 2.9182314504 -1.7040001380 -4.6919857918
C 2.0683455550 -0.4628063627 -4.5643448480
O 1.9351803993 0.3252091873 -5.4801226461
O 1.3800654247 -0.2406409527 -3.4298031681
O 3.8030900812 -3.6642316624 -3.7090141171
C 2.3642628424 1.3167240231 3.1696337162
H -1.8806985207 5.7778535270 0.3346302908
H -2.8923895550 5.5889993850 1.7710883253
H -1.4165020801 4.6314065672 1.6010373855
H -3.4846157115 3.2689387583 1.1192418623
H -3.9360218671 4.3933784098 -0.1579774321
H -2.9336195511 2.3084817244 -1.0023597313
H -1.3477104247 3.3177682761 -2.6238026270
H -2.7319508194 4.3958884878 -2.3574118497
H -1.1631280559 4.7477173603 -1.6051548050
H 0.4619101120 0.8099802392 1.0052324356
H 0.1083945230 2.6390484907 2.6832708886
H -1.0781352188 1.6155953962 3.5123932094
H 0.9170989201 1.2705773711 4.7399016204
H 1.4318684347 -1.1259162775 4.3984079988
H -1.9480822340 -0.4624459828 2.3641773484
H -1.8069245381 -0.9095470864 -0.0264070508
H -2.7512103194 -2.5096270765 1.4674879253
H -1.0279351247 -4.4828529884 2.2709170016
H 0.4215705503 -3.2065898005 3.7462616238
H -1.0586122086 -4.0564629790 -0.5623307031
H -2.5433641558 -4.6016088252 0.2238671810
H -2.5909666242 -3.2271636538 -0.8955720719
H 1.0584341997 -1.1723347089 0.4796276157
H 0.4746685865 -2.6775042682 -0.1782667074
H -0.5371584979 -1.4838432049 -2.1209309565
H -0.0838675447 0.0703681231 -1.4164882094
H 2.3108423916 -0.5015237459 -1.6100955522
H 1.2619421471 -3.0178184333 -3.0136975293
H 2.2793825886 -2.9378993194 -1.5580913249
H 4.0588188631 -1.7778377241 -2.8653152811
H 2.3221491053 -2.4123764883 -5.2848448239
H 3.7977523165 -1.4478533717 -5.2879939688
H 4.1251042836 -4.0690644891 -2.8936118184
H 2.4751145092 1.0439727279 2.1148374783
H 3.1516250371 0.8053731033 3.7325455893
H 2.5177751492 2.3964599253 3.2660535046
