47
CONF63
C 0.2321026827 2.4673384310 2.7152263024
C -0.3814108301 2.2238081926 1.3540343680
C -1.7088318652 2.8870059366 1.0832175340
C -1.6562590754 1.3750935093 1.3623676101
C -1.8950133637 0.3787338367 0.3088683213
O -1.7665296952 0.5143748116 -0.8888982637
O -2.2607011975 -0.8096708466 0.8908194956
C -2.4647312154 -1.9179811699 -0.0199069623
C -3.7178100851 -2.5595979888 0.3671780788
N -4.7125704059 -3.0727471414 0.6490849780
C -1.2732270455 -2.8589993525 0.0024511884
C -1.4350151769 -4.2402213277 0.0551217406
C -0.3101714183 -5.0616195055 0.0203810410
C 0.9627280853 -4.5196452985 -0.0705489186
C 1.1103965160 -3.1342357558 -0.1196451582
C 0.0007430178 -2.2975083757 -0.0819637828
O 2.4034469457 -2.6643368325 -0.1360597051
C 2.6913382819 -1.4170398037 -0.6609249444
C 2.1610965571 -0.9794457099 -1.8724641185
C 2.5646322688 0.2507757037 -2.3798918901
C 3.4952097006 1.0301889451 -1.6971152156
C 4.0238302398 0.5733246455 -0.4934982327
C 3.6197269613 -0.6488673881 0.0340806334
C -2.0657006287 3.4171647909 -0.2353453631
C -2.6744341001 4.5835866976 -0.4480896640
Br -3.0793672618 5.1892775876 -2.2028976566
Br -3.2048333668 5.7778580984 0.9361734523
C 0.6362903667 2.0611936447 0.2511787577
H 0.8780633007 1.6289353973 2.9976326121
H -0.5303284939 2.5907541259 3.4894278334
H 0.8442128581 3.3753067031 2.6913210375
H -2.1174452179 3.4467801041 1.9189735470
H -2.0083821775 1.0677060395 2.3406809820
H -2.5853662645 -1.5057922234 -1.0316461751
H -2.4261530443 -4.6738823665 0.1297490983
H -0.4311865172 -6.1387082296 0.0663786110
H 1.8478008128 -5.1452820219 -0.0947958887
H 0.1334357535 -1.2230122796 -0.1205847900
H 1.4480184381 -1.5955895843 -2.4090210913
H 2.1529284067 0.5957525310 -3.3228342616
H 3.8070615366 1.9863637360 -2.1031574586
H 4.7520990917 1.1720046479 0.0441559279
H 4.0205982783 -1.0244618610 0.9691659978
H -1.8251363133 2.8237468223 -1.1102524928
H 1.3391365488 1.2602246991 0.5047220641
H 1.2127344481 2.9868094431 0.1493214375
H 0.1929745943 1.8245366915 -0.7151239318
