41
CONF102
C -4.0813071035 0.1623558504 2.9629499137
C -4.0081335107 -1.1411216196 2.1679332514
N -3.4904741247 -0.9635546470 0.8098257861
C -4.4442880437 -1.1521867419 -0.2798220952
C -5.3738041566 0.0456341865 -0.4714724346
O -4.6687833814 1.2323499063 -0.8078814127
C -2.1630333445 -0.6714500602 0.5934363735
C -1.2141615939 -0.7720394059 1.6389097002
C 0.1176246701 -0.4956219802 1.4108235027
C 0.5765930091 -0.0995931944 0.1469389285
C -0.3624672205 0.0255907801 -0.8947303670
C -1.6931740024 -0.2447743458 -0.6785275300
N 1.9391413965 0.1547812414 0.0425767241
N 2.3439680193 0.4928844526 -1.1089257415
C 3.7249676416 0.7525262499 -1.1801998441
C 4.6124333488 0.6967997262 -0.0904985797
C 5.9524367665 0.9754628317 -0.2773729452
C 6.4060477745 1.3097407954 -1.5535422871
C 5.5484350887 1.3728646184 -2.6467402092
C 4.2066995294 1.0938181254 -2.4521045801
N 7.8329279607 1.6056050004 -1.7482601842
O 8.2056211426 1.8946875766 -2.8812459141
O 8.5664810381 1.5455725484 -0.7661778556
H -4.7663810659 0.8699373022 2.4859472125
H -3.0998511651 0.6375482523 3.0393873863
H -4.4456091472 -0.0332030207 3.9761390563
H -5.0111032849 -1.5688291533 2.0767810200
H -3.4075437297 -1.8871807869 2.7055101821
H -5.0515931927 -2.0422418943 -0.0611285288
H -3.9049953765 -1.3579458858 -1.2068460137
H -6.0527843167 -0.1586551824 -1.3063956124
H -5.9918837714 0.1904999084 0.4299211686
H -4.0409697447 1.4158625303 -0.0971025108
H -1.5157477710 -1.0824508325 2.6305146908
H 0.8422743069 -0.5868599973 2.2136537570
H -0.0259128809 0.3596378104 -1.8691596519
H -2.3930544984 -0.0845163121 -1.4886329277
H 4.2310871925 0.4350384957 0.8886373440
H 6.6577248542 0.9408023981 0.5436576866
H 5.9400345076 1.6369433251 -3.6207090411
H 3.5025591749 1.1324396308 -3.2760679254
