30
CONF20
O 6.1876596165 -0.1906248354 0.6551919259
S 5.1367842474 -0.1221415811 -0.6009978764
O 5.2469919612 1.2085488925 -1.1640783862
O 5.2405726072 -1.3587329339 -1.3630498460
C 3.5193548290 -0.1766851716 0.4258913581
F 3.4252825828 -1.4186368221 0.9421885088
F 3.6327772772 0.7146707233 1.4183354571
C 2.2712829156 0.1477428334 -0.4554316596
F 2.2288827493 1.4822950133 -0.6487666979
F 2.4201274478 -0.4730285242 -1.6458269188
C 0.9238891333 -0.3211762736 0.1982895768
F 0.9640264683 -0.0202476634 1.5164779399
F 0.8204043007 -1.6604468228 0.0505117565
C -0.3399894378 0.3607814271 -0.4364919438
F -0.4381810803 1.6182179703 0.0482958210
F -0.1776599689 0.4096325899 -1.7767290871
C -1.6717571728 -0.4087956636 -0.1194456722
F -1.6455463226 -0.8051584728 1.1730867241
F -1.7416086937 -1.4961913738 -0.9186115712
C -2.9553981792 0.4647938569 -0.3456671643
F -3.0855983629 1.3196434216 0.6934782537
F -2.8067454503 1.1754890801 -1.4862069866
C -4.2651734368 -0.3879164890 -0.4639494442
F -4.3232426434 -0.9307728495 -1.6977445353
F -4.2433609032 -1.3781811094 0.4582375984
C -5.5777985769 0.4335738203 -0.2441204081
F -5.7183209344 0.7788788417 1.0395339049
F -5.5656953724 1.5403522803 -1.0003914632
F -6.6238293127 -0.3234460000 -0.5997889435
H 6.4395749107 -1.1213171049 0.7858023733
