61
CONF117
C -1.8051418694 1.1922633097 5.1073231722
C -1.7215436553 1.3893228203 3.5955959103
C -2.5422093377 0.3537232270 2.8262930467
C -2.4000710189 0.4622954774 1.3148850696
C -3.2105788711 -0.5758747155 0.5307461328
C -3.2201614897 -0.0028658821 -0.9034611572
N -3.0024322189 1.4464574514 -0.7404675286
C -2.9269754900 1.7559555403 0.6946898834
C -3.9072349012 2.2941573780 -1.4988557957
C -2.1055807234 -0.6764034785 -1.7086858013
O -2.1606182288 -1.8892628461 -1.9655031725
N -1.0734868186 0.1139903494 -2.0359792496
C 0.1937689269 -0.3826959691 -2.5363400205
C 1.1445977885 -0.7750590047 -1.3791269220
C 1.1313489903 -2.2441465383 -0.9520394041
C 2.1910069238 -2.4333350279 0.1523362897
C 1.9832921311 -1.4172450515 1.2831367047
C 1.8225291677 0.0186973139 0.7555411475
O 0.8434850970 0.0785227865 -0.2673807911
S 3.4145698945 0.8378652527 0.2499426526
C 2.8704904238 2.5670281755 0.5449517127
O 0.8272073382 -1.7491157739 2.0415619421
O 3.5064804947 -2.2208400226 -0.3600969681
O -0.0962545796 -2.7018815247 -0.4097832288
C 0.8202854054 0.6936216223 -3.4473151044
C 2.0091327269 0.1807673870 -4.2502401952
O 1.1530202379 1.8673264318 -2.7022281589
H -1.4250527566 0.2054440951 5.3916401885
H -1.2198884968 1.9450486550 5.6439283217
H -2.8417029084 1.2631296560 5.4545197968
H -2.0652654033 2.3994711706 3.3376657708
H -0.6738972418 1.3232095795 3.2723198789
H -3.6032378735 0.4463764955 3.1019090339
H -2.2245283354 -0.6508532235 3.1361182518
H -1.3397829599 0.3549479305 1.0454534421
H -2.7984798223 -1.5867384313 0.5713332348
H -4.2354453285 -0.6095043017 0.9201152198
H -2.2763212921 2.6229677467 0.8599571871
H -3.9239838843 1.9901217667 1.1201423077
H -3.8439606756 2.0528897464 -2.5654755778
H -3.6178765395 3.3436222261 -1.3773000339
H -4.9620182311 2.1905874512 -1.1805103741
H -1.1108112920 1.0540648906 -1.6497838299
H -0.0130735498 -1.2749223925 -3.1409286873
H 2.1806750669 -0.5803671075 -1.6983598169
H 1.4255554858 -2.8506802619 -1.8299333078
H 2.0804762964 -3.4401689892 0.5796261966
H 2.8437960600 -1.4559077105 1.9593592261
H 1.4198546012 0.6195100444 1.5775102475
H 2.7565167054 2.7597176398 1.6151857781
H 3.6456005833 3.2250108170 0.1451784227
H 1.9288517610 2.7732047816 0.0276234570
H 0.1408758691 -2.0036108376 1.3999838079
H 3.7108516790 -2.9295582819 -0.9802471966
H -0.8271976546 -2.5444974291 -1.0508787296
H 0.0354553474 1.0169613556 -4.1420789495
H 2.3700593964 0.9755314814 -4.9075681191
H 2.8399876712 -0.1189269428 -3.6021964930
H 1.7257170056 -0.6792400083 -4.8663680911
H -4.1667338311 -0.2333485556 -1.4126715919
H 1.8480369299 1.6280969235 -2.0701611129
