66
CONF134
C -3.0183185607 -1.5674202267 5.9370619698
C -2.2363905421 -1.6674526002 4.6483231416
O -2.3275210632 -0.3715399704 3.9933531958
C -1.6778076990 -0.2558201238 2.8132830514
O -1.0530239346 -1.1904366104 2.3187435092
C -1.7804649567 1.0512249630 2.1738079191
C -2.4835981768 2.1147157363 2.6604233599
N -2.5585387932 3.2596232883 1.8958273230
C -2.1569981450 3.3578363276 0.5824189041
C -1.4555517633 2.3281843370 0.0281694505
C -0.9779570858 1.1643449027 0.8859581891
C 0.5147221174 1.3067208440 1.1968450900
C 0.9087445125 2.3924533266 1.9841850544
C 2.2425159370 2.6293295841 2.2900211101
C 3.2240495057 1.7636471904 1.8073265701
C 2.8556247047 0.6819341858 1.0243122262
C 1.5083397120 0.4331174723 0.6992109522
C 1.1657132725 -0.7125371728 -0.1349895173
C 1.9748800184 -1.2958871116 -1.0357139004
C 1.4894399593 -2.4223562883 -1.8481761060
O 0.3969772855 -2.9566828373 -1.7286144000
O 2.4236615997 -2.7634442586 -2.7597507717
C 2.1778794669 -3.8263626984 -3.7692314389
C 1.0103038797 -3.4256282645 -4.6634605347
C 3.4802827991 -3.8365257902 -4.5604421779
C 1.9602107933 -5.1674717642 -3.0785160483
C -1.0942828804 2.3495772173 -1.3856167366
O -1.3119498040 3.2500548314 -2.1879139144
O -0.4659736881 1.1960088237 -1.7376193841
C 0.0354310665 1.0976249048 -3.0957868524
C 1.3939822550 1.7580607589 -3.2155580196
C -2.5785266518 4.6239056708 -0.0986264229
C -3.2264379125 2.2087631631 3.9600545098
H -4.0681859607 -1.3319391027 5.7402423140
H -2.5991387073 -0.7960791624 6.5895663011
H -2.9720154190 -2.5259844554 6.4619864797
H -2.6478542012 -2.4297051906 3.9788572434
H -1.1811041332 -1.8973913683 4.8274545316
H -3.0870490741 4.0315539572 2.2738618218
H -1.1315515028 0.2436914183 0.3264219855
H 0.1491259411 3.0702754791 2.3624800019
H 2.5160367160 3.4803968984 2.9059851511
H 4.2691459191 1.9268269997 2.0507154421
H 3.6183997546 -0.0064018459 0.6746083980
H 0.1662897770 -1.1227441640 -0.0331577624
H 2.9755509541 -0.9326584373 -1.2452448254
H 0.0640727646 -3.4376692535 -4.1211334633
H 1.1769095965 -2.4257033754 -5.0764856586
H 0.9461435181 -4.1336967402 -5.4954633527
H 3.6567558257 -2.8613932424 -5.0236755858
H 3.4197626538 -4.5923341868 -5.3481540409
H 4.3244568149 -4.0782473275 -3.9080601843
H 2.7778961969 -5.3715215517 -2.3802195992
H 1.0119953929 -5.1952221503 -2.5408968729
H 1.9558043035 -5.9544190882 -3.8389988150
H -0.6927859104 1.5374944443 -3.7826264639
H 0.1013894441 0.0218839946 -3.2790535676
H 1.7843223843 1.6070896861 -4.2270175860
H 1.3252161173 2.8328056096 -3.0274579392
H 2.0962162028 1.3156516580 -2.5028614292
H -1.7215300137 5.1200094303 -0.5570890672
H -3.0499056767 5.3048767045 0.6141526457
H -3.2877823525 4.4103532767 -0.9027012863
H -2.5711400674 1.9761802247 4.8012801524
H -3.6333398153 3.2135056582 4.0961543270
H -4.0515259725 1.4929553081 3.9872224142
