18
CONF3
C 1.5523559431 0.6511337449 0.0068109099
C 1.2799660107 0.3251655415 -1.4517715042
O 0.9474102088 -0.7655307995 -1.8757993286
O 1.5485853055 1.3692962872 -2.2499225618
N 1.1065526297 -0.3485446146 0.9612845481
C -0.2689956458 -0.2086059984 1.4428475274
P -1.5471786483 -0.2273409929 0.1244569927
O -1.4908215485 0.9453535311 -0.7898440465
O -2.9182887035 -0.4126564665 0.9616235506
O -1.3999949396 -1.6687610080 -0.5857524966
H 1.1073830520 1.6252177605 0.2321456204
H 2.6434866230 0.7800768858 0.0826439931
H 1.3619821600 1.0942571195 -3.1619564350
H 1.2549304726 -1.2783497742 0.5827521463
H -0.4803951795 -1.0160585486 2.1534065713
H -0.3701855172 0.7383248620 1.9886868106
H -3.6607024020 0.0308016415 0.5287310417
H -0.6660899269 -1.6337788643 -1.2297020320
