46
CONF16
C -4.8847095202 -2.4046826331 -0.6968025043
O -4.2965691052 -1.8272624068 0.4740584736
C -3.4770203571 -0.7529634543 0.2899913710
C -2.9006745348 -0.2143974457 1.4639395946
C -2.0503038764 0.8823117295 1.3718478646
C -1.7455034612 1.4591770786 0.1314398171
C -2.3136259956 0.9206810298 -1.0157575051
C -3.1772657571 -0.1755345418 -0.9387300507
C -0.8039149479 2.6461115498 0.0525838023
C 0.2774845804 2.4816276412 -0.9894038292
N 0.2213647751 3.2838998075 -2.0445952896
C 1.1707043351 3.1573431648 -3.0086050059
C 2.1935286378 2.2440848831 -2.9555938062
C 2.2822426811 1.3761652426 -1.8452112543
C 3.3076454755 0.4082267449 -1.7143673197
C 3.3497534346 -0.4220917002 -0.6183434260
C 2.3484304295 -0.3089979442 0.4051933048
C 1.3547103298 0.6329128615 0.2943497873
C 1.2940510811 1.4957853710 -0.8286954061
O 2.4808310527 -1.1863059611 1.4298618581
C 1.4784215129 -1.1420424773 2.4557417633
O 4.2788705506 -1.3790444393 -0.3963645670
C 5.3035341114 -1.5419405954 -1.3885637690
O -3.2336490378 -0.8451450673 2.6252304219
C -2.6413546186 -0.3514414319 3.8317353249
H -5.5267741862 -1.6811272201 -1.2135434010
H -5.4871242451 -3.2415245183 -0.3422143709
H -4.1135453186 -2.7705669032 -1.3852849930
H -2.0852072947 1.3484117312 -1.9875461342
H -3.6078982765 -0.5749752886 -1.8489566752
H -1.3647933133 3.5522519231 -0.1981534500
H 1.0802636128 3.8369880523 -3.8534386576
H 2.9275252930 2.1854615258 -3.7536759527
H 4.0530555520 0.3355258630 -2.4970235913
H 0.5996075954 0.7117019978 1.0632606545
H 0.4844721176 -1.3419395207 2.0368907325
H 1.7475583950 -1.9257516885 3.1637831402
H 1.4779752580 -0.1685203898 2.9601875041
H 4.8671776565 -1.8182950525 -2.3550673520
H 5.9385037473 -2.3490716720 -1.0238931570
H 5.8919111604 -0.6234672799 -1.4943135376
H -2.9355438596 0.6880333220 4.0196646107
H -3.0217130981 -0.9901390301 4.6293917137
H -1.5473919300 -0.4236695760 3.7911272867
H -1.6013964154 1.2968547366 2.2678199068
H -0.3504549867 2.8098565283 1.0373033719
