48
CONF52
C -4.1244252637 -1.0928043956 -1.4324911466
C -4.3569562017 -0.3236739561 -0.1247641520
C -4.5242247700 -1.3111600441 1.0390051706
C -5.6535172917 0.4926847964 -0.2595623837
C -3.2128187538 0.7059785950 0.1027722022
C -1.7800954108 0.1556918258 -0.0255697947
N -1.4254158138 -0.8137810668 1.0058289668
C -0.9605126607 -2.0746111933 0.8682095411
N -0.7795981876 -2.6270839419 2.0590139134
C -1.1540463814 -1.6347477968 2.9153590223
N -1.5489215070 -0.5151076448 2.3261130482
O -0.9166540852 1.2836106582 0.0583640656
C 0.4369927370 1.0986625483 -0.1373734277
C 0.9906490470 0.0930124774 -0.9280163988
C 2.3725846942 0.0290257478 -1.0797418244
C 3.2234165666 0.9530620011 -0.4621758493
C 2.6384004760 1.9605581445 0.3195763096
C 1.2638737159 2.0325166015 0.4866996215
C 4.6895186071 0.8691689951 -0.6251064019
C 5.5488351021 1.1816096014 0.4386047074
C 6.9293474082 1.1020951323 0.2867294082
C 7.4810253187 0.7072727851 -0.9305659304
C 6.6382646896 0.3935680223 -1.9952716076
C 5.2575607916 0.4745594590 -1.8453129364
O -3.3821206971 1.4546049659 1.3016633660
H -3.3014563906 -1.8107769055 -1.3507153224
H -5.0261119450 -1.6585394211 -1.6882460659
H -3.9091011244 -0.4093401642 -2.2625244793
H -5.4322807602 -1.9009549854 0.8763358118
H -3.6892094310 -2.0127329607 1.1164173058
H -4.6342885861 -0.7878494668 1.9940417448
H -6.4977047413 -0.1803605485 -0.4402989529
H -5.5890021113 1.1942249320 -1.0991277360
H -5.8553325675 1.0617973479 0.6519435166
H -3.2838959650 1.4343070992 -0.7165051076
H -1.6769737369 -0.3600644220 -0.9846398874
H -0.7860543468 -2.5333808617 -0.0964838886
H -1.1322914857 -1.7339844028 3.9932502303
H 0.3728259312 -0.6401664165 -1.4324011735
H 2.7920481810 -0.7735785904 -1.6781930614
H 3.2660984842 2.7080831185 0.7944318804
H 0.8152274615 2.8144457361 1.0908268405
H 5.1311457483 1.4675791178 1.3991774809
H 7.5762638341 1.3406918361 1.1255434629
H 8.5582180021 0.6444863130 -1.0485254568
H 7.0577291196 0.0933369300 -2.9507620303
H 4.6130880934 0.2505918966 -2.6899931828
H -3.0201025916 0.9295694030 2.0344612908
