78
CONF1289
C -0.8277713355 -0.7042849490 -0.3626803091
C 0.0821945380 -1.8479428678 -0.7852133349
O -0.7378803873 -3.0449115746 -0.5402131917
C -1.6990575209 -2.7787894378 0.3821453723
O -2.4426718884 -3.6444666327 0.7830450899
C -1.5935841161 -1.3305763855 0.7924336442
C -2.8533777426 -0.5339395358 1.1393083150
C -3.9653583739 -0.6656675917 0.1044839761
C -4.0499615149 0.2112716260 -0.9791990905
C -5.0594230442 0.0435065876 -1.9242100625
O -5.2490423026 0.8307133068 -3.0271441614
C -4.3253817603 1.9076205823 -3.2363735040
C -5.9971053394 -0.9870117826 -1.7971104407
O -6.9978598558 -1.1574683390 -2.7122850427
C -5.9187707470 -1.8539248155 -0.7009877552
O -6.8827224146 -2.8187819618 -0.6521312770
C -6.8295907067 -3.7384701510 0.4463231663
C -4.9054544802 -1.6884067402 0.2453670260
C -2.4391969644 0.9188580652 1.3357554084
C -3.3392859744 1.7432789158 2.0439575893
C -3.0234401522 3.0712947867 2.1822365697
C -1.8600817370 3.6080361590 1.6390037982
O -1.7914428619 4.9491382238 1.9081694376
C -2.9689129528 5.2655422665 2.6836087893
O -3.7382023870 4.0484723882 2.8188187703
C -0.9701330059 2.8334496673 0.9408161398
C -1.2666608564 1.4592945206 0.7897008255
C -0.2277634453 0.6182046573 0.0699595656
O 0.8780134366 0.3803879990 0.9921546595
C 2.1044859811 0.8767541673 0.5742516645
O 2.5960097087 0.0262315240 -0.4754999920
C 3.8502082264 0.4984450150 -0.9557472502
C 4.2951417460 -0.3522806771 -2.1310674432
O 5.6017671423 0.0975727752 -2.5376112921
C 6.5656185545 0.0593461745 -1.4917778099
O 6.1631696877 0.7994502814 -0.3492589345
C 4.8880867247 0.3688067556 0.1536010899
C 4.4971266632 1.2268755672 1.3435785357
O 5.4160204111 1.1162740477 2.4257644354
C 3.0624928783 0.8675187626 1.7750929822
O 2.5952865530 1.7301631423 2.8044369257
C 6.9571266081 -1.3514146762 -1.1262214573
C 7.4018050023 -1.8270746959 0.0784829870
C 7.7910298746 -3.1936895538 0.0306836537
C 7.6501941105 -3.7438405215 -1.2136061818
S 7.0320221407 -2.5893713797 -2.3491632626
H -1.5323833422 -0.4991323013 -1.1787872174
H 0.9774035321 -1.9213849819 -0.1637160946
H 0.3500039363 -1.8523285944 -1.8422560579
H -0.9407458947 -1.3370453326 1.6814019990
H -3.2480105278 -0.9078796635 2.0910069949
H -3.3476053371 1.0307016126 -1.0689018157
H -3.3033984515 1.5274139793 -3.3475010468
H -4.3672856607 2.6231530697 -2.4071814019
H -4.6417743392 2.3934552594 -4.1594518735
H -6.8984677162 -0.4691680347 -3.3872633764
H -5.8861384251 -4.2970197943 0.4458359970
H -6.9492312654 -3.2166077723 1.4029896089
H -7.6633308406 -4.4248364775 0.2959150823
H -4.8339426707 -2.3565436623 1.0935840333
H -4.2553283777 1.3335496989 2.4574853969
H -3.5655458026 6.0113427270 2.1485726395
H -2.6657048981 5.6131372619 3.6770337678
H -0.0686164441 3.2593102871 0.5129326147
H 0.1576122006 1.1687255163 -0.7962141794
H 2.0120661290 1.9053444332 0.1753469479
H 3.7754198046 1.5529091000 -1.2696201928
H 3.6430967144 -0.2237803331 -2.9979357912
H 4.3121602860 -1.4125680694 -1.8399869757
H 7.4281756410 0.6024860960 -1.8928269283
H 4.9382454120 -0.6877484546 0.4632683399
H 4.5232650706 2.2832349599 1.0408986651
H 5.4176252423 0.1961489138 2.7253430903
H 3.0576143637 -0.1458161842 2.1981950925
H 2.6438867470 2.6408887517 2.4812971047
H 7.4446104978 -1.2123170202 0.9702055264
H 8.1580702425 -3.7479435207 0.8866754741
H 7.8605882762 -4.7564031832 -1.5320241425
