37
CONF6
C 4.6624464285 -2.2726695729 -0.1048845042
C 3.7690413415 -3.1605850007 0.7429357758
C 3.1583490833 -4.3123008123 -0.0292792957
O 2.6352308177 -2.3710973077 1.2325353057
C 2.8675468479 -1.5941219354 2.3147992549
O 3.9133734234 -1.5630831811 2.9210357063
C 1.6700209207 -0.7611439611 2.6272739475
C 1.3684869599 -0.3083346343 3.9207417872
C 0.2730869253 0.5164153393 4.1474444014
C -0.5126658224 0.9005304477 3.0764806814
C -0.2655787159 0.4744967987 1.7703816608
C 0.8309214797 -0.3642619797 1.5828131296
C -1.1107988143 0.8834223122 0.6478826314
N -2.4462864446 0.8061729935 0.7196153523
N -2.9099107948 1.2501617533 -0.4494125804
C -1.9089920756 1.6108484770 -1.3011372201
C -0.7238146039 1.3866149992 -0.6146260053
Br 1.0314158988 1.7616331356 -1.1707606594
C -2.2029453704 2.1525214381 -2.6570489487
F -3.0127672254 1.3154266925 -3.3594858311
F -1.0904282546 2.3408271069 -3.3760094461
F -2.8566916028 3.3433137172 -2.5886796086
C -4.3459923368 1.2330472033 -0.6999098215
F -1.5376252756 1.7298637859 3.3207305925
Cl 2.2931300393 -0.7891049085 5.3149680903
H 5.0606019404 -1.4443849096 0.4855804573
H 5.5047913316 -2.8556322849 -0.4897069167
H 4.1014086960 -1.8730377262 -0.9557723931
H 4.3173586616 -3.5225904608 1.6188603164
H 3.9517836209 -4.9629057423 -0.4081523460
H 2.5798629066 -3.9410343256 -0.8807792417
H 2.4992685297 -4.9046373279 0.6103521189
H 0.0316456763 0.8647612591 5.1437906005
H 1.0472582601 -0.7269109954 0.5861636766
H -4.8358814182 1.1414471165 0.2692166127
H -4.6149412121 0.3832821422 -1.3339472572
H -4.6523351307 2.1616737901 -1.1858018352
