70
CONF90
C 0.1255024771 -1.3596683813 2.7526028671
C -0.2422862616 -2.6295457922 3.5472887847
C -0.9597541392 -2.2183023578 4.7901076525
C -1.1170033038 -2.7472704993 6.0435761972
N -1.9513593329 -1.9137276193 6.7867362399
C -2.3298058274 -0.8344200431 6.0179490544
C -3.1262848661 0.2845902425 6.2595589626
C -3.2639097313 1.1891392202 5.2119646263
C -2.6367885994 1.0109126985 3.9616086787
C -1.8489587434 -0.1067860684 3.7152525079
C -1.7150776269 -1.0158108198 4.7641184776
C -1.0969709654 -0.4405306024 2.4405289412
C -0.6182414599 0.8218922813 1.7121175954
C 0.2107804876 0.4652285791 0.4776927712
C 1.3875793014 -0.4504006064 0.9123962811
N 0.9346755880 -1.6731016597 1.5641447641
C 0.3769891369 -2.6384450587 0.6109671990
C 1.4501002391 -3.1687572548 -0.2943777626
C 1.3684737031 -3.2276661664 -1.6202217246
C 0.7834741511 1.7056211540 -0.1834277002
O 1.0916765952 2.6700622232 0.5194533508
N 0.9922933738 1.6695225002 -1.5535118521
C 0.6205500702 0.4905756023 -2.3613336038
C -0.8090062562 0.5894404586 -2.8879930740
C -1.2521813321 -0.6837630691 -3.6049242141
N -0.2880753717 -1.1525444906 -4.6007821397
C -0.0914789056 -0.1695271691 -5.6664179356
C -0.7304583885 -2.4241062900 -5.1628424406
C 1.4601456871 2.7853973595 -2.3473091619
O 1.5067607557 2.6736135786 -3.5675146198
N 1.8085327412 3.9004607333 -1.6775565495
C 2.3237381230 5.0581162751 -2.3981362008
C 3.8004669969 4.9182256959 -2.7602996625
H 0.7869281464 -0.7677098014 3.4062804798
H -0.9074470069 -3.2686907542 2.9514067026
H 0.6693399832 -3.2028280004 3.7481804214
H -0.7136192742 -3.6471010028 6.4857764731
H -2.2046318918 -2.0659580460 7.7463632896
H -3.6151175141 0.4561272425 7.2130585244
H -3.8731374312 2.0743726873 5.3645941317
H -2.7797113156 1.7701077150 3.1998572230
H -1.7749105963 -1.0011336106 1.7749512814
H -1.4728515937 1.4386793823 1.4136685645
H -0.0139100678 1.4285026813 2.3958249151
H -0.4273832783 -0.0849453163 -0.2187203658
H 2.0169771424 -0.7155786436 0.0552931886
H 2.0087519560 0.1175453914 1.6180418482
H -0.0269015853 -3.4829447258 1.1799498301
H -0.4585334606 -2.2444494805 -0.0001012606
H 2.3423538504 -3.5293900883 0.2166023522
H 0.5004395441 -2.8550683027 -2.1581776683
H 2.1691041753 -3.6468782143 -2.2206455782
H 0.7657454917 -0.4149358595 -1.7710251200
H 1.3212790776 0.4321272803 -3.1930722240
H -1.5014944445 0.7696822584 -2.0556821909
H -0.8819163746 1.4605756026 -3.5469070507
H -2.2536224913 -0.5138094049 -4.0544529633
H -1.3758388048 -1.4866689056 -2.8631879114
H 0.3362862867 0.7557984574 -5.2692224160
H -1.0350132935 0.0773474347 -6.1930471710
H 0.6120898405 -0.5721702446 -6.4018684340
H -0.8490859465 -3.1659392983 -4.3650673694
H -1.6966895237 -2.3428895351 -5.7002131267
H 0.0191829684 -2.7997769802 -5.8668618272
H 1.7480399739 3.8703468086 -0.6638278436
H 1.7283111144 5.1931981064 -3.3068415653
H 2.1658309469 5.9333234575 -1.7590372671
H 4.1464138930 5.8078705114 -3.2962191915
H 3.9476435829 4.0481608800 -3.4052637687
H 4.4129981444 4.7966753466 -1.8618225496
