65
CONF743
C -4.6745011999 3.4979426711 -2.6691733675
C -4.1730919402 2.4804736969 -1.6472531005
C -2.6365461595 2.5014843646 -1.4743793058
C -2.1183802363 3.8312672226 -0.9290113121
C -2.2727008762 1.3692399234 -0.5414350157
O -2.2356048756 1.4560076138 0.6721564305
O -2.0309769288 0.2312397023 -1.2226705698
C -1.7246775445 -0.9692923429 -0.4472339792
C -2.9922580276 -1.7786314248 -0.2366391578
C -2.6944758778 -3.0170764928 0.6236437525
C -1.4261377401 -3.6864270327 0.1815595984
C -0.5160895319 -3.1377618362 -0.6458932082
C -0.6887239502 -1.7524432247 -1.2351553941
C 0.6749173089 -1.0379142856 -1.3378444975
C 1.5742238927 -1.8593355671 -2.2847426339
C 1.6373380883 -3.2899921041 -1.8187443393
C 0.6868792397 -3.8495228593 -1.0499274902
C 2.9695482713 -1.2564960700 -2.4698210789
C 1.3237555458 -0.8037886737 0.0466537390
C 1.6993468205 0.6627645367 0.2618714180
C 2.2110688406 0.9474065164 1.6624139258
C 3.5045145114 0.2420144294 2.0162161127
C 4.0173733224 0.7572631504 3.3498829801
C 4.3148912292 2.2384657583 3.2165436081
C 3.2506522359 3.0415206220 2.5097384829
O 3.2086338299 4.2557867962 2.5741350760
O 2.3514717285 2.4170960294 1.7300795047
O 5.2397411345 0.1282768817 3.7512733201
C -2.6425211298 -2.6849215517 2.1258930596
H -5.7534292776 3.3894105072 -2.8153723729
H -4.4850483703 4.5250499458 -2.3447352341
H -4.1850044743 3.3511740072 -3.6381752777
H -4.6351709797 2.6692062032 -0.6697965506
H -4.4769016581 1.4735264583 -1.9579574589
H -2.1818488889 2.2918676615 -2.4495547850
H -2.6307288143 4.0916694477 0.0020002396
H -1.0444427309 3.7771860021 -0.7263713976
H -2.2855273734 4.6318900772 -1.6533626534
H -1.3195784821 -0.6476106118 0.5149418637
H -3.7564798998 -1.1590074023 0.2456318143
H -3.3765546039 -2.0865092445 -1.2168507622
H -3.5180847183 -3.7311845265 0.4824855832
H -1.2386386630 -4.6857511227 0.5748928682
H -1.0715087897 -1.8692053595 -2.2616009569
H 0.4971571821 -0.0632601865 -1.8094854957
H 1.0877074993 -1.8476181166 -3.2739072768
H 2.5033248915 -3.8786361092 -2.1171792699
H 0.7919431634 -4.8794126958 -0.7134561221
H 3.5376011731 -1.2559584146 -1.5339079109
H 3.5391653048 -1.8347262404 -3.2045646468
H 2.8987075906 -0.2240418167 -2.8272953382
H 0.6425794430 -1.1156108636 0.8484659484
H 2.2065856885 -1.4416578865 0.1520603905
H 2.4614837767 0.9705349086 -0.4654206606
H 0.8145387560 1.2884442692 0.0889235150
H 1.4369257416 0.6962890774 2.4001078565
H 4.2586003143 0.4082226712 1.2351850273
H 3.3052685533 -0.8330425779 2.0790399697
H 3.2457491102 0.5996385824 4.1197630370
H 5.2259729410 2.3553945401 2.6124243889
H 4.5063127304 2.7127328684 4.1824497070
H 5.0498966009 -0.8043346450 3.9164248837
H -2.4261274664 -3.5827649185 2.7135208925
H -3.6023132834 -2.2775579757 2.4601835313
H -1.8598028836 -1.9489939101 2.3383558733
