37
CONF10
C -2.0022054253 -0.6071650435 -1.0061889277
Si -0.3270740854 -0.3485165701 -0.2151961425
C -0.2781933785 -1.3767500184 1.3996494553
N -1.5014696833 -1.2270956221 2.1794321598
C -2.5114398774 -2.1024097654 2.3345496393
N -3.4939780228 -1.5541235243 3.0474215672
C -3.0155261278 -0.3070173416 3.3001643722
N -1.8124263322 -0.0582400128 2.7898355780
C 1.0549884356 -1.0121975551 -1.3047227125
C 2.0684426775 -0.1854247993 -1.8105150190
C 3.0726369550 -0.6849736713 -2.6370985259
C 3.0456149835 -2.0321564506 -2.9519355064
F 4.0175152359 -2.5309669261 -3.7586320230
C 2.0683864560 -2.8948603334 -2.4831609214
C 1.0768532395 -2.3714649523 -1.6586861071
C -0.0204918564 1.4588117663 0.1768049233
C 1.0946388368 1.8419415724 0.9391313790
C 1.3434832801 3.1753810302 1.2482173042
C 0.4511683708 4.1270556718 0.7817811845
F 0.6833982495 5.4320844204 1.0772049762
C -0.6645160491 3.8067872409 0.0286709292
C -0.8902807761 2.4639956365 -0.2679637234
H -2.0714060975 -0.0777920131 -1.9620608796
H -2.8071525683 -0.2500996465 -0.3539807209
H -2.1652841944 -1.6737011770 -1.1969080908
H -0.1797681210 -2.4395960247 1.1551315795
H 0.5787677566 -1.1006470437 2.0240920240
H -2.4859643506 -3.1038387155 1.9249871680
H -3.5541780935 0.4370962020 3.8737026142
H 2.0809919700 0.8716988393 -1.5612059737
H 3.8577222390 -0.0479730132 -3.0304869244
H 2.0876338632 -3.9437737513 -2.7592190161
H 0.3055896136 -3.0453058858 -1.2934871105
H 1.7913322802 1.0907893736 1.3035452844
H 2.2039897342 3.4756391933 1.8365177004
H -1.3353178661 4.5877538337 -0.3131842545
H -1.7664800704 2.2070542777 -0.8562074761
