47
CONF223
C -4.8983630946 0.2951096447 -2.9797221074
C -3.7674401678 0.6404756624 -2.0121045578
C -3.7520832138 2.1248397219 -1.6414311027
C -2.6063763373 2.5140835865 -0.7015420929
C -2.7756065007 2.0307554944 0.7489218840
C -3.7695092843 2.9132487954 1.5227389300
C -4.3119708901 2.2762371439 2.8020645840
C -1.4367233298 2.0213192815 1.4682497883
O -0.6170221645 0.9817533151 0.8692919385
C 0.6476048488 0.8706579183 1.3420799746
O 1.0954083510 1.5901938358 2.2227014518
C 1.3607577210 -0.2067181660 0.6551772876
C 2.6407760529 -0.4899028494 0.9719843634
C 3.4877557023 -1.5130733358 0.3965283805
C 3.0615699781 -2.3973381032 -0.6164023518
C 3.9116064012 -3.3534134251 -1.1292913418
C 5.2273167941 -3.4638433532 -0.6473175632
C 5.6751167724 -2.6001289540 0.3571555833
C 4.8051230649 -1.6424300007 0.8625962189
O 5.9787709624 -4.4356162677 -1.2183351059
C 7.3315217116 -4.5923403596 -0.7618707600
H -4.8929562538 -0.7679772660 -3.2404389196
H -5.8738621096 0.5283793260 -2.5384476546
H -4.8070667941 0.8702607973 -3.9079924565
H -3.8654786128 0.0277837257 -1.1073332924
H -2.8010173159 0.3755191531 -2.4615128987
H -4.7189572643 2.3963714214 -1.1958489896
H -3.6680661446 2.7128405915 -2.5649469988
H -2.4956974904 3.6072785610 -0.6814323671
H -1.6711402967 2.1142431194 -1.1135803655
H -3.1576236773 1.0004919059 0.7476007310
H -3.2840789983 3.8718986818 1.7542795931
H -4.6109343548 3.1506224901 0.8621242055
H -5.0234505091 2.9438910760 3.2979038210
H -3.5165988762 2.0521726934 3.5198549988
H -4.8318774436 1.3389204394 2.5758135287
H -0.9255582307 2.9858687410 1.3579685473
H -1.5402524464 1.8047713975 2.5361510791
H 0.8095023426 -0.7484186360 -0.1058733680
H 3.1009535426 0.1171560786 1.7508425878
H 2.0508559869 -2.3347094021 -1.0057070995
H 3.5826052879 -4.0334890230 -1.9082263094
H 6.6833051686 -2.6638332528 0.7467568153
H 5.1562316061 -0.9728230210 1.6427630997
H 7.9127997968 -3.6818276823 -0.9452318941
H 7.7436505944 -5.4163275931 -1.3440701150
H 7.3564774161 -4.8429340186 0.3044886167
