44
CONF10
C -1.4276143396 -1.0603988240 -2.8641358510
C -1.2849755919 -2.0541994106 -1.7216772387
N -1.6730897547 -1.4546005135 -0.4129377281
C -2.9446430585 -1.6432096242 -0.0255024154
C -3.4889244507 -1.1492189960 1.1350912783
C -2.6815165467 -0.3635251219 2.0202563690
O -3.1221596307 0.1108587191 3.1034941750
C -1.3113183584 -0.1342009987 1.5914029072
C -0.4736277867 0.6323307140 2.4105371314
C 0.8262275718 0.8491988045 2.0521783415
C 1.3847393669 0.3656773544 0.8474495364
C 0.5117412055 -0.3786759017 0.0371077905
C -0.8162902711 -0.6797875223 0.3768479015
F 1.0185034485 -0.7657059611 -1.1545730991
N 2.6743105825 0.6103797614 0.4256887290
C 3.3913563082 1.8254100403 0.8256352701
C 4.3923231683 2.1720564874 -0.2703901838
N 5.3163511047 1.0482842867 -0.4656606128
C 4.5939346827 -0.1520951017 -0.9150968181
C 3.5769962897 -0.5208399532 0.1602493908
C 5.5719807593 -1.2937191740 -1.1485601011
F 1.6272481899 1.5242737687 2.9056314462
C -4.9068308765 -1.4580253605 1.4335918395
O -5.6229291131 -2.1207220018 0.6992574417
O -5.3639384597 -0.9544517265 2.5842920108
H -2.4684564174 -0.7370775946 -2.9601575651
H -0.7983376776 -0.1800115513 -2.7171200980
H -1.1287361833 -1.5448779327 -3.7980501796
H -0.2769740765 -2.4548289451 -1.6393197165
H -1.9589947310 -2.9001657184 -1.8691508248
H -3.5598078746 -2.2391057650 -0.6914643517
H -0.8548678455 1.0131639307 3.3507635073
H 3.9262822407 1.6829617639 1.7772140587
H 2.6777153158 2.6448087484 0.9394631051
H 4.9614711853 3.0555223984 0.0394098861
H 3.8355501368 2.4263263733 -1.1912458474
H 5.9987628628 1.3007525326 -1.1742393190
H 4.0308382600 0.0462140186 -1.8481379689
H 3.0012444185 -1.3931903288 -0.1525415472
H 5.0458466477 -2.1844570662 -1.5055092727
H 6.0989369884 -1.5441282374 -0.2218301297
H 6.3150215968 -1.0134515674 -1.9020928659
H -4.5937469661 -0.4491378971 3.0125217147
H 4.1160296061 -0.7803857324 1.0882347173
