45
CONF13
C 1.2605343587 2.9026921397 -1.7549965607
O 1.9130481466 3.0096636401 -0.4660867726
C 2.1212155900 1.8823741801 0.2225987428
C 2.7931138003 1.9693133647 1.4333028268
C 2.9900692486 0.7593409975 2.0980711879
O 3.6369775092 0.8052799017 3.2667257846
C 3.8470213860 -0.4421482650 3.9708967466
N 2.5685813757 -0.4181314047 1.6250587013
C 1.9245389775 -0.3662681818 0.4595140645
N 1.4835836807 -1.5998415638 -0.0129891647
C 0.5804978852 -1.9092344203 -1.0200501963
O 0.1626958615 -3.0475594265 -1.1661871642
N 0.1979881678 -0.8422756975 -1.8210834077
S -1.2468413831 -0.8976182042 -2.7025345143
O -1.5235735327 0.5049258042 -3.0228571770
O -1.1440695891 -1.8881443739 -3.7720746382
C -2.3991701023 -1.4909595715 -1.4850669550
C -2.5141729948 -1.0833446911 -0.1553950815
C -3.4420028414 -1.9840273886 0.3903759252
N -3.8714881817 -2.8569427460 -0.5238008181
N -3.2252695476 -2.5570180474 -1.6573729457
C -3.4649788684 -3.3684986909 -2.8501303096
C -1.8399669072 -0.0210027168 0.5700107900
N -1.8112445918 1.2684572707 0.2119447477
N -1.1465387365 1.8137111727 1.2194387247
C -0.9306684966 3.2500954223 1.3533980213
N -0.7818515246 0.9479029291 2.1542353164
N -1.2121576409 -0.2276237515 1.7591926977
N 1.6804033588 0.7193859930 -0.2768175514
H 0.2469138884 2.5060963692 -1.6441260901
H 1.8411639976 2.2639904120 -2.4257023903
H 1.2258135140 3.9226465780 -2.1357305673
H 3.1486396024 2.9105338223 1.8300107087
H 2.8897938891 -0.9091435944 4.2143027614
H 4.3782989443 -0.1620948643 4.8797657442
H 4.4518194588 -1.1241458399 3.3685436700
H 1.7167031452 -2.3894885972 0.5756329937
H 0.5434877815 0.0915885837 -1.5350494571
H -3.8213039080 -2.0118153644 1.4027321435
H -4.3236474847 -4.0012407561 -2.6288858893
H -3.6811486921 -2.7250605729 -3.7036603627
H -2.5892213760 -3.9836992623 -3.0672517172
H -0.0793429029 3.4014922647 2.0171712190
H -0.7270089812 3.6659385731 0.3671192536
H -1.8272355700 3.7118989710 1.7751715831
