26
CONF1
C -0.2381032721 2.3113391373 0.7713476857
C 0.0691629202 1.1541507298 0.1998115924
C -0.8862485925 -0.0154754121 -0.1284959715
C 0.1608424540 -1.0500916016 -0.7289319617
C 1.1196391169 -1.6606336620 0.3322433667
C 1.9373802007 -0.4250968675 0.8396586187
C 1.4805286372 0.7034307187 -0.1328315510
C 1.2272055487 -0.1006845117 -1.4316873567
Cl 0.6661240386 0.9392054638 -2.7691971200
Cl 2.6737618187 -0.9617034572 -2.0679144748
Cl 2.6882945747 2.0001430034 -0.2613528578
Cl 1.7417436727 0.0316800930 2.5614653070
Cl 0.4370562371 -2.7668517953 1.5622954887
Cl -0.5117454499 -2.3026254505 -1.8014944465
C -1.9946273497 0.2533980723 -1.1755470131
Cl -3.1156758896 1.6112765751 -0.7153231604
C -1.5630900724 -0.3800324169 1.2061145259
Cl -2.7608837670 -1.7547021223 1.1044821058
H 0.5351387608 3.0426651589 0.9797051746
H -1.2539302529 2.5658077948 1.0433068111
H 1.8156557314 -2.3025221067 -0.2034338065
H 3.0014089043 -0.6241634180 0.7088601579
H -2.6247361462 -0.6313749295 -1.2553329376
H -1.6090146349 0.5122292081 -2.1531437896
H -0.8514149118 -0.6328150536 1.9858260004
H -2.1444725840 0.4834470348 1.5295688239
