35
CONF8
C 5.1454177542 -1.5915464869 0.2429779305
O 4.0973556500 -1.7000487452 1.2164114528
C 2.9335101369 -1.0386892590 0.9639411693
C 2.6868108429 -0.2743559509 -0.1768088499
C 1.4532940858 0.3644638067 -0.3222403220
C 0.4615130351 0.2561010403 0.6462665053
C 0.7202175289 -0.5288198931 1.7783512151
C 1.9383414535 -1.1638939654 1.9433600739
C -0.9042271544 0.9168995639 0.5028820630
C -0.9170939316 1.9903982949 -0.5758204205
C -1.3138396181 1.7499600685 -2.0035721613
C -2.2211731717 2.5379637217 -1.0966748524
C -1.9571638276 -0.1623089634 0.2577164915
C -3.1950125790 -0.1583162714 0.8943894838
N -4.1215804009 -1.1034565975 0.6822304705
C -3.7958140502 -2.0648765704 -0.1840650544
N -2.6407459974 -2.1799997787 -0.8476487446
C -1.7318438419 -1.2270985816 -0.6148703787
O -1.1642638614 1.5655417013 1.7691759459
H 4.8283235617 -2.0011956482 -0.7230947597
H 5.4585142987 -0.5483693600 0.1184083071
H 5.9749986347 -2.1794657524 0.6363248378
H 3.4327747912 -0.1643747621 -0.9542079101
H 1.2759090482 0.9495221716 -1.2183321479
H -0.0441164503 -0.6405739241 2.5413262597
H 2.1391076979 -1.7655190936 2.8242779092
H -0.1285762429 2.7230851860 -0.4206397134
H -0.7571177867 2.2841226826 -2.7661929984
H -1.6400667472 0.7552377879 -2.2887311647
H -3.1406235954 2.0559807292 -0.7767366419
H -2.2908112731 3.6105126006 -1.2410437419
H -3.4494185407 0.6216809730 1.6080041023
H -4.5435973531 -2.8364338349 -0.3652515143
H -0.7802582077 -1.3198096896 -1.1365322581
H -1.8087429884 2.2676826946 1.6025136297
