41
CONF9
C 2.8307608824 3.5640897366 0.7908398409
C 2.8289105519 2.0864921325 0.5481287679
C 2.7902654690 1.1696589943 1.5930105208
C 2.7703258232 -0.2003744957 1.3792444287
C 2.7957681086 -0.7372695015 0.0966595439
C 2.8552051984 0.1754863673 -0.9512401754
C 2.8658752858 1.5438310249 -0.7313703892
F 2.9039696318 2.3636351663 -1.8007207261
F 2.8870312206 -0.2741651756 -2.2199364544
C 2.7093250225 -2.2121880992 -0.1697679960
O 1.5253067318 -2.5206774380 -0.9567972347
C 0.3362620028 -2.3371257359 -0.3239353431
O 0.2529421021 -2.0578175117 0.8568630741
C -0.7702155188 -2.4674873224 -1.2848315312
C -1.9525314296 -1.4735706499 -1.1486425892
C -2.1733740190 -2.9333060013 -0.9079196589
C -2.8940388316 -3.6944579064 -2.0010538599
C -2.4669461741 -3.4461665305 0.4824059069
C -1.9582033716 -0.4840157659 -0.0619753485
C -1.4792646177 0.7541038490 -0.1791477833
C -1.5245294824 1.7793236548 0.9141709671
F -2.1133618587 1.2933484850 2.0245473435
F -2.2121290493 2.8882553836 0.5439365621
F -0.2822595958 2.1974064575 1.2675012174
Cl -0.6927887448 1.3300469591 -1.6292968442
F 2.7233639442 -1.0125178113 2.4498859441
F 2.7515401667 1.6203222010 2.8633292377
H 2.4054332053 4.0941248566 -0.0625893738
H 2.2537294701 3.8055696642 1.6851837243
H 3.8539982934 3.9260234062 0.9410470647
H 2.6972961640 -2.7751423918 0.7642770391
H 3.5377654945 -2.5474980141 -0.7956087531
H -2.2593296888 -1.0796332244 -2.1153179800
H -3.9760117504 -3.6365528663 -1.8410978131
H -2.6688825157 -3.2855578040 -2.9900289435
H -2.6010705654 -4.7493072607 -1.9853468141
H -3.5403201272 -3.3541680313 0.6809656075
H -2.2015615343 -4.5065199401 0.5450012069
H -1.9176888428 -2.9139841944 1.2582526767
H -2.3931362731 -0.7536718590 0.8952733139
H -0.4578421323 -2.6661526987 -2.3040950772
