59
CONF441
C 0.3996186719 2.3288548712 2.2957508097
C 1.0320542133 2.2112851674 3.7126110299
C 2.4899073246 1.7737552545 3.4752216941
C 2.4573673034 1.0197373979 2.1367963410
C 1.5085469877 1.9093767199 1.3098009652
C 1.8860621154 -0.3873097185 2.3129253789
C 1.9356764519 -1.2451527199 1.0753357413
O 1.1815044871 -2.1981454943 0.9258685704
N 2.8905974343 -0.9469909852 0.0986740820
C 3.8341417319 0.0804145765 0.2241150645
O 4.6396610227 0.3022118309 -0.6689490617
C 3.8357237224 0.8633414982 1.5107288564
C 2.9085798456 -1.7951874831 -1.1147502124
C 1.7598497981 -1.4721090116 -2.0692339510
C 1.8516642992 -0.0802499109 -2.6899940173
C 0.7108007678 0.2927146944 -3.6535426788
N -0.6597866956 0.3664806326 -3.1167295937
C -0.7226801079 1.0449786631 -1.8226251532
C -2.1706346344 1.2534775306 -1.3929215545
N -2.8457128737 -0.0485851422 -1.3338872930
C -2.8342757687 -0.6836103434 -2.6588297608
C -1.3910314282 -0.9061760312 -3.1098129424
C -2.7216015497 -0.8214905343 -0.2052037246
N -2.3368994075 -0.2018270142 0.9363124436
C -2.2716889743 -0.9582970424 2.0305554177
C -2.5704789480 -2.3155043503 2.0349522924
C -2.9548783742 -2.8527059828 0.8117936756
N -3.0341186546 -2.1352263539 -0.3080950760
H 0.0471020082 3.3421746185 2.0848385865
H -0.4669706454 1.6665154700 2.2044752827
H 0.9819997198 3.1521119848 4.2672582735
H 0.4999135185 1.4616160778 4.3068459866
H 2.9001724241 1.1663342775 4.2887916344
H 3.1337266373 2.6539407389 3.3552785609
H 1.1181072482 1.4040112076 0.4208900127
H 2.0700741988 2.7879150850 0.9696702053
H 2.4594561955 -0.9252049326 3.0822664958
H 0.8435430791 -0.3773921239 2.6437068730
H 4.2972371969 1.8317270805 1.2991757972
H 4.4995634893 0.3263641013 2.2049389880
H 2.8421873444 -2.8346013904 -0.7841675163
H 3.8740779679 -1.6372298649 -1.5977688213
H 1.7599714508 -2.2335405036 -2.8598222002
H 0.8232447445 -1.5881833702 -1.5194758570
H 2.7892282008 0.0010656527 -3.2563983090
H 1.9149388885 0.6739022948 -1.8952903367
H 0.6957888232 -0.4123522483 -4.4944460278
H 0.9535987508 1.2810883531 -4.0707573473
H -0.2194633139 0.4680810602 -1.0227020554
H -0.2148443296 2.0147620993 -1.9029533519
H -2.7012771675 1.8684298161 -2.1288090602
H -2.2152417707 1.7455624382 -0.4217565910
H -3.3463825470 -0.0054582246 -3.3512293766
H -0.9467396136 -1.6635261718 -2.4406203792
H -1.3863673669 -1.3182856778 -4.1259751515
H -1.9590259331 -0.4535032941 2.9447385856
H -2.5025324890 -2.9173754197 2.9324205146
H -3.2069742944 -3.9091008584 0.7234778822
H -3.3738333359 -1.6295932522 -2.6272000851
