27
CONF4
C 3.4855881784 1.4144819272 -1.0815743988
C 3.7301461326 0.1959230676 -0.2196967129
O 2.6655300880 0.0458517576 0.7787644749
C 1.5414932485 -0.5499765661 0.3757158734
O 1.3317665355 -1.0000546808 -0.7298823634
C 0.5612412116 -0.6231935078 1.5342985560
N -0.7583288927 -1.0480476535 1.0976169722
C -1.6610963617 -0.3139574474 0.3258735365
C -2.8200153971 -1.0522105234 0.0061206810
C -3.8636496627 -0.5321944720 -0.7434596250
C -3.7587603195 0.7751047782 -1.2027519237
C -2.6294870979 1.5320733922 -0.9100859277
C -1.5892818697 0.9999098949 -0.1525376570
Cl -0.2178016627 2.0565060763 0.1514971680
S -2.7492484945 -2.6758850462 0.6678130402
C -1.1300853072 -2.3564467730 1.3684432248
O -0.4745936972 -3.1697821992 1.9919037014
H 3.4024934985 2.3142234667 -0.4653326870
H 2.5747535618 1.3026332999 -1.6749910911
H 4.3306023617 1.5414431224 -1.7654199655
H 4.6355025401 0.2992888307 0.3806417841
H 3.7845056128 -0.7227027328 -0.8089465520
H 0.9278069092 -1.3826307370 2.2329826571
H 0.5190594383 0.3246919155 2.0713312599
H -4.7356574217 -1.1376427715 -0.9636602762
H -4.5571123772 1.2112057915 -1.7926796003
H -2.5453712577 2.5513875838 -1.2686554513
