52
CONF156
C -5.5697790273 -0.3558532526 -0.1480200130
C -4.4188593197 -0.2269414478 -1.1038923177
C -3.1343520470 -0.4845356690 -0.8049746595
C -2.6346006018 -0.9911119154 0.4844593956
C -1.5522569139 -0.2490814145 1.3118252495
C -1.2762596596 -1.6053010042 0.6544749178
C -0.3136651899 -1.7042342852 -0.5039208408
C -1.1632724831 -2.7615598279 1.6255830814
C -0.9353125257 0.9887513541 0.8242694697
O -0.8024215010 1.3538829011 -0.3283321836
O -0.4924996724 1.7263659528 1.8879694481
C 0.1753111948 2.9640250930 1.5802104284
C 1.6484037856 2.7845028677 1.3084682976
C 2.2112032793 1.5331678622 1.0830163696
C 3.5726012465 1.4348654389 0.8057004792
C 4.3914247238 2.5541551053 0.7703998843
C 3.8226638793 3.8036680716 1.0130542286
C 2.4628641103 3.9221267579 1.2739765332
O 4.1600594672 0.1905728350 0.6256670714
C 3.6562556646 -0.6368606214 -0.3613307141
C 3.0435072875 -0.1451874151 -1.5130064683
C 2.6262351565 -1.0434636163 -2.4916140386
C 2.8184126579 -2.4134271578 -2.3304843005
C 3.4342212653 -2.8876000657 -1.1733269654
C 3.8524444331 -2.0047238193 -0.1827964203
C -4.8065554012 0.2329444935 -2.4815796653
H -6.2815801145 -1.1103373135 -0.5069508345
H -5.2681048884 -0.6221683375 0.8659182297
H -6.1216550417 0.5912083832 -0.1000520234
H -2.3978167218 -0.3244147322 -1.5861713660
H -3.3925326207 -1.4104948135 1.1397317266
H -1.6872791730 -0.2779843867 2.3876597750
H 0.7113472331 -1.8007254146 -0.1286221774
H -0.3433422027 -0.8395753123 -1.1660063126
H -0.5396283031 -2.6011011674 -1.0918757304
H -0.1503382851 -2.8162182114 2.0402622061
H -1.8720568632 -2.6611277654 2.4523419529
H -1.3697240202 -3.7048393490 1.1071918782
H -0.3110285625 3.4389546315 0.7210897179
H 0.0285266857 3.5944302337 2.4611385546
H 1.6126957049 0.6292882554 1.1195573593
H 5.4489961299 2.4423368874 0.5571354119
H 4.4486267219 4.6901669086 0.9930467265
H 2.0279582261 4.9005668315 1.4577968066
H 2.8964445196 0.9213856614 -1.6440091389
H 2.1481904422 -0.6621854911 -3.3887831672
H 2.4880206485 -3.1058082559 -3.0976134724
H 3.5863151936 -3.9534889694 -1.0340488357
H 4.3319236107 -2.3592636738 0.7237523640
H -5.5323227031 -0.4576945842 -2.9302100953
H -3.9405707203 0.3059232267 -3.1445741940
H -5.2968368158 1.2140203156 -2.4382371179
