52
CONF17
C -3.8171739963 2.2072611961 2.7559259876
O -3.9548931443 1.8707416250 1.3686163820
C -2.8702366648 1.3311808148 0.7473229983
C -1.6326943063 1.1189102831 1.3598163039
C -0.5847178786 0.5538045292 0.6325108958
C -0.7610914674 0.2174406345 -0.7100483992
C -1.9987762629 0.4260452762 -1.3234642736
C -3.0582857946 0.9903866130 -0.6000228408
O -4.2594020120 1.2480143621 -1.2176027906
C -5.1893234733 0.1493472011 -1.1121913708
O -2.2720943254 0.1234657158 -2.6229505156
C -1.2204665333 -0.4767218226 -3.3912746397
C 0.7458567811 0.3025307927 1.3334002098
C 0.8396535987 -1.0770874752 1.9889523246
C 0.9517714130 -2.1862909244 0.9571511434
C 0.6161866268 -3.4129608506 1.7946151150
O -0.3668263218 -2.9179237002 2.7660737153
C -0.2547115993 -1.5697786557 2.9054863071
O -0.9316889033 -0.9600779133 3.6995273139
C 2.3114364374 -2.1122845071 0.2908733565
C 2.6201444179 -0.6803082154 -0.1283417124
C 3.6864328318 -0.5008121049 -1.0368844619
C 3.9988053035 0.7806238033 -1.4123547377
C 3.3094058029 1.8805348731 -0.9117505369
C 2.2812176504 1.7361942887 -0.0154320489
C 1.9284771834 0.4290889711 0.3814738730
O 3.8584488961 3.0377309866 -1.4041720273
C 4.7555767858 2.6084351694 -2.4513035441
O 5.0118679714 1.2049424306 -2.2375199623
O 2.3879554323 -2.9473439156 -0.8749240488
H -3.0507780608 2.9775669917 2.9004010279
H -4.7891926093 2.5958308842 3.0609001321
H -3.5692984938 1.3216622766 3.3525978276
H -1.4756911977 1.3794415016 2.3981936993
H 0.0706862256 -0.1853937683 -1.2737137278
H -4.7802592557 -0.7465092520 -1.5938045929
H -6.0993732667 0.4625507804 -1.6275465151
H -5.4136922189 -0.0640069783 -0.0606139482
H -1.6456546953 -0.6575108652 -4.3788528277
H -0.9010541793 -1.4264895311 -2.9462371032
H -0.3609084734 0.1982680116 -3.4782454668
H 0.8527442588 1.0642698706 2.1142606551
H 1.7492478931 -1.0872974968 2.6157402809
H 0.1755396203 -2.0495548343 0.1939172496
H 1.4840032842 -3.7836943881 2.3532969594
H 0.1421067575 -4.2278820123 1.2466942605
H 3.0796471693 -2.4316000364 1.0162412237
H 4.2325635758 -1.3530616544 -1.4231194807
H 1.7450653021 2.5944366148 0.3768900164
H 4.2628577659 2.7422435430 -3.4239935464
H 5.6920850383 3.1641490712 -2.3774204289
H 2.4685014970 -3.8625090193 -0.5770941282
