39
CONF3
C -1.1034595248 0.2178176237 2.4042600553
C -2.2044537755 -0.3140782493 1.4825486374
C -3.0956263054 0.8272619416 0.9861507903
C -1.6257707977 -1.1704860428 0.3088041300
C -0.7728056512 -2.3449310227 0.8240120202
C -2.7685322167 -1.7310565097 -0.4401102976
N -3.6863269918 -2.1888137066 -0.9725539464
N -0.8525069725 -0.3015162753 -0.5793493145
C -0.2760978255 -0.7046091206 -1.7316978958
O -0.4301416098 -1.8134089965 -2.2369816389
C 0.5706721246 0.3629393413 -2.4371404588
C -0.2686682845 1.1156536246 -3.4545481917
O 1.0727615511 1.3474211610 -1.5103724710
C 1.9619636759 0.9455153078 -0.5599716186
C 2.2658549711 1.8708676931 0.4503026511
C 3.1544875968 1.5681339575 1.4707413311
C 3.7421614878 0.3085178340 1.4856461200
C 3.4570248941 -0.6339003101 0.5094314696
C 2.5659252630 -0.3118457608 -0.5098643876
Cl 4.8634922967 -0.0897400716 2.7779547538
Cl 1.4918492374 3.4392538984 0.4342379554
H -0.4123505854 0.8866456690 1.8778414325
H -0.5232261365 -0.5833017344 2.8664755069
H -1.5683735542 0.8000664432 3.2049556118
H -2.8238955245 -1.0144938136 2.0552736932
H -2.5148197174 1.6092177235 0.4849787489
H -3.5952328634 1.2917179300 1.8406946161
H -3.8662816239 0.4737190122 0.2949415287
H -1.3354350083 -2.9063369804 1.5746685411
H 0.1408467027 -1.9519514767 1.2741839706
H -0.5034457732 -3.0105500349 0.0035230976
H -0.6806630867 0.6453547226 -0.2723741153
H 1.4012819460 -0.1499830874 -2.9348904863
H -0.6865077772 0.4067914727 -4.1733041682
H -1.0873840270 1.6440569102 -2.9577015960
H 0.3551234104 1.8360313657 -3.9890037880
H 3.3733947145 2.2996083482 2.2391313842
H 3.9169368076 -1.6146896375 0.5349597579
H 2.3482286783 -1.0608992552 -1.2615919127
