48
CONF34
C 0.2811386512 1.3863057490 1.7201496256
C -0.4795626828 0.0820057340 1.5402760543
N 0.4368573875 -1.0594336271 1.5517561964
C 1.5261122065 -0.8838780245 0.5752627633
C 2.2342524251 0.4458760183 0.7698301365
N 1.2849008715 1.5523097994 0.6704830096
C 1.9681044929 2.8502612786 0.7692035385
C 1.1200931789 4.0128026204 0.2509846056
C 1.0422414141 4.1075223832 -1.2767538698
N 0.6416140457 2.8587454006 -1.9100412336
C -0.5756009765 2.2679340610 -1.7166153920
O -1.6002494463 2.7145355961 -1.2028955718
N -0.3856220931 0.9925729663 -2.2747131683
C -1.2763948794 -0.0467848481 -2.3515273133
C -0.8524458973 -1.2180795780 -2.8933258720
C 0.4903789525 -1.3443306874 -3.3675157667
C 1.3769900404 -0.3078071622 -3.2804199021
C 0.9398451533 0.9071197871 -2.7006531149
N 1.5871754665 2.0329418528 -2.4780784963
C -0.1345063011 -2.3340596254 1.6285443898
C 0.6984776995 -3.4716305718 1.6806855138
C 0.1339858877 -4.7279957057 1.8038804695
C -1.2376386496 -4.9404272936 1.8862060456
C -2.0529931114 -3.8149254037 1.8366747025
C -1.5263611876 -2.5342783702 1.7031145678
Cl 1.2136070348 -6.1258816491 1.8758327607
H 0.7490743562 1.4031854954 2.7259026606
H -0.4439157912 2.2049488783 1.6760766651
H -1.1861133754 -0.0167789560 2.3697439209
H -1.0568138183 0.1236852995 0.5984047786
H 2.2603472875 -1.6835027272 0.6824103004
H 1.1177427555 -0.9326475215 -0.4491868131
H 2.9895849517 0.5507346210 -0.0179260667
H 2.7578495900 0.4440899464 1.7479591374
H 2.8910538303 2.7906442276 0.1779933348
H 2.2716252417 3.0548479500 1.8142558824
H 1.5570489305 4.9541121763 0.6036543730
H 0.1092406740 3.9658531150 0.6669861257
H 2.0177789449 4.3617928924 -1.6993488318
H 0.3281641198 4.8855485608 -1.5674288157
H -2.2718264635 0.1463423591 -1.9687624785
H -1.5399970144 -2.0515285543 -2.9630465321
H 0.8077024962 -2.2872843484 -3.7992682056
H 2.4005060922 -0.3862162808 -3.6278368185
H 1.7760728574 -3.3749411405 1.6581979677
H -1.6481580332 -5.9381400084 1.9807742409
H -3.1303821046 -3.9393383478 1.8881744169
H -2.2099518594 -1.6979430470 1.6436591453
