65
CONF141
C -3.3499013337 3.9682667749 -0.1450584405
C -2.1155118300 3.9869910633 -1.0436120329
C -1.6311138107 2.5833896170 -1.4209623071
C -0.4320623595 2.6356236174 -2.3821923153
C -1.2141691931 1.8165742482 -0.1833831330
O -0.5262579757 2.2736908963 0.7107254241
O -1.6584127780 0.5452123779 -0.2085985610
C -1.2732624900 -0.3236726454 0.9071617726
C -2.2033432970 -0.0955059154 2.0869045900
C -1.7970491830 -0.9897511080 3.2680124917
C -1.5501885770 -2.3954214972 2.8054227915
C -1.3672647517 -2.7509607644 1.5200489093
C -1.3779018553 -1.7470278478 0.3858860913
C -0.3003991481 -2.1198006748 -0.6567637046
C -0.7012629464 -3.4865553770 -1.2583410770
C -0.9148371485 -4.4882568897 -0.1529336058
C -1.1810566111 -4.1358805636 1.1164982237
C 0.2801123313 -4.0177112712 -2.3070122896
C 1.1283031534 -2.1414914551 -0.0646105517
C 2.1795916234 -1.4942072635 -0.9767685244
C 2.1387699606 0.0256554825 -0.9232746810
C 2.8314456862 0.6248542634 0.2848182071
C 2.8369585245 2.1397110675 0.1736492287
C 3.5953112605 2.5362903126 -1.0875330587
C 3.2816793291 1.7215288590 -2.3210292833
O 3.5670519132 2.1012972579 -3.4395788735
O 2.7413485340 0.4951314487 -2.1841688364
O 3.3841209661 2.7809629731 1.3294315801
C -0.5831614783 -0.4340606410 4.0345625184
H -3.1399732642 3.4650565629 0.8054108736
H -3.6844833995 4.9842753390 0.0842708725
H -4.1782176431 3.4405548017 -0.6301338483
H -2.3372295873 4.5242587379 -1.9731984632
H -1.2948070227 4.5225707609 -0.5521011500
H -2.4475369688 2.0328374260 -1.9013689652
H -0.1024809301 1.6321711224 -2.6693214223
H -0.7138691796 3.1752942653 -3.2910354886
H 0.4093021034 3.1609325455 -1.9173118312
H -0.2439938547 -0.0738060217 1.1825197083
H -2.1818086593 0.9576696822 2.3835129713
H -3.2251992423 -0.3403786355 1.7717566538
H -2.6387572158 -1.0123276031 3.9743698169
H -1.5211073998 -3.1695414220 3.5721653395
H -2.3538512516 -1.8305752572 -0.1181901830
H -0.3436080152 -1.3723366269 -1.4598652029
H -1.6646396197 -3.3358050937 -1.7722398193
H -0.8208049801 -5.5422231453 -0.4092036215
H -1.2838867842 -4.8983575382 1.8863451328
H -0.0987142725 -4.9506180600 -2.7371853239
H 0.4096000987 -3.2961996099 -3.1200593143
H 1.2625683128 -4.2282426618 -1.8722222919
H 1.1434308438 -1.6509619587 0.9161563591
H 1.4212381594 -3.1769657027 0.1342289493
H 3.1872580761 -1.8300640170 -0.7040896467
H 2.0043109884 -1.8039441515 -2.0120416962
H 1.0967287975 0.3709123180 -0.9573495918
H 3.8609701936 0.2453023083 0.3500155981
H 2.2945238951 0.3175066153 1.1885233007
H 1.8035185275 2.4963964468 0.1162636307
H 4.6718682380 2.3846462946 -0.9163404946
H 3.4571288914 3.5913224097 -1.3372092108
H 4.2978817773 2.4820462992 1.4316240870
H -0.8079757536 0.5579523831 4.4399612319
H 0.2908705492 -0.3504645353 3.3799446668
H -0.3157918281 -1.0937716131 4.8660976142
