57
CONF100
C -3.2983112841 0.5620701906 -3.7274963109
C -3.5864239229 0.6450257663 -2.2232704211
C -2.3420986407 0.5762041363 -1.3714990828
C -2.0963093038 -0.4168661997 -0.4776624475
C -2.9480066531 -1.6289593330 -0.3677985774
C -3.4602333173 -2.0145269101 0.8792451378
C -4.2472993120 -3.1540284420 1.0059453578
C -4.5207507812 -3.9449018142 -0.1096958665
C -3.9995722790 -3.5855118674 -1.3507234458
C -3.2204776876 -2.4386531033 -1.4780353037
C -0.9744873361 -0.3551838746 0.4919583049
C -0.7313087827 0.7882711489 1.2667014866
C 0.3299522884 0.8427902623 2.1550394152
C 1.1866284349 -0.2552008338 2.2981619375
C 0.9461231411 -1.4163047449 1.5572320518
C -0.1322957777 -1.4560684669 0.6779722762
O 2.1875948776 -0.1063297953 3.2137569105
C 3.3010935613 -1.0187066395 3.1831741008
C 4.1684468539 -0.8647018753 1.9412746320
N 4.6093706484 0.5086746522 1.6911437432
C 5.2603639157 0.5834069836 0.3811566771
C 5.5269048836 0.9821893942 2.7294106842
C -1.3752828908 1.6837009272 -1.5829279812
C -1.7799021442 3.0246455049 -1.5444211882
C -0.8653662335 4.0521691026 -1.7591756365
C 0.4678933796 3.7600750697 -2.0386786115
C 0.8785031331 2.4290310930 -2.1044771089
C -0.0334958537 1.4041165415 -1.8794443412
H -4.2268659570 0.6430075269 -4.3007472544
H -2.8189934722 -0.3883745652 -3.9832351599
H -2.6312288927 1.3702431893 -4.0438237407
H -4.0871433585 1.6015765581 -2.0200252359
H -4.2863772448 -0.1405436589 -1.9299940238
H -3.2418317140 -1.4062272336 1.7524555742
H -4.6465612617 -3.4279826323 1.9779525485
H -5.1283444346 -4.8390008697 -0.0100433088
H -4.1932839202 -4.2034689536 -2.2223928236
H -2.8020879262 -2.1732292189 -2.4439926304
H -1.3856506313 1.6482666906 1.1653037458
H 0.5101981126 1.7304761273 2.7534628384
H 1.5801316371 -2.2893156584 1.6555756260
H -0.3095010617 -2.3636232723 0.1074161109
H 3.8593922425 -0.7864643374 4.0926112367
H 2.9583097182 -2.0577003963 3.2632307623
H 3.6101346826 -1.2004525493 1.0602502469
H 5.0250209579 -1.5601459530 2.0636499902
H 6.1663469606 -0.0502127240 0.3202260932
H 5.5539151981 1.6177654547 0.1744797394
H 4.5633626773 0.2596321513 -0.3990985173
H 5.0258817457 1.0238324276 3.7008195404
H 5.8609419992 1.9947927022 2.4825438656
H 6.4210707025 0.3362506701 2.8261811803
H -2.8129344640 3.2700684729 -1.3170756994
H -1.1962547599 5.0851590016 -1.7065437772
H 1.1794842217 4.5617753034 -2.2101401084
H 1.9121195721 2.1887402051 -2.3356492417
H 0.2894939489 0.3687292239 -1.9302644833
