45
CONF64
C 5.6355734804 2.1629663102 -0.6142949761
C 4.5351332445 1.2064585773 -0.1579103328
C 3.1346563676 1.7927668385 -0.3325119279
C 2.0246681477 0.8431379942 0.1181071582
C 0.6309834396 1.4371200121 -0.0879264176
C -0.5219883227 0.5988850736 0.5009643207
C -0.6260621188 -0.7902432047 -0.1511007372
C -1.7249705551 -1.6645042251 0.4532717850
C -1.8605381354 -3.0373311706 -0.2115687575
C -0.6375645538 -3.9429030688 -0.0530667473
C -0.8738718503 -5.3411817814 -0.6222927522
C -1.8207780731 1.3717679920 0.4067284361
C -2.4084085188 1.6455733062 -0.8346051725
C -3.5935068092 2.3708467850 -0.9213683385
C -4.2167018784 2.8402282651 0.2347953931
C -3.6421696609 2.5767728945 1.4756809086
C -2.4551690925 1.8494724715 1.5567291956
H 5.6018089302 3.0978938973 -0.0435776643
H 5.5172809577 2.4154753907 -1.6740531204
H 6.6297989600 1.7243042857 -0.4820789672
H 4.6049235077 0.2670129107 -0.7223172446
H 4.6869462163 0.9451726600 0.8979287030
H 3.0626699359 2.7331373017 0.2322856752
H 2.9809864115 2.0544778855 -1.3892737430
H 2.1213124355 -0.0994074152 -0.4348275408
H 2.1631944624 0.5986584395 1.1811630134
H 0.4516739765 1.5884130634 -1.1615891361
H 0.5997777740 2.4327123788 0.3754116635
H -0.3097944842 0.4486556152 1.5695107035
H -0.7980986924 -0.6757309931 -1.2311788309
H 0.3400404574 -1.2936390206 -0.0435421364
H -1.5284449686 -1.7974778564 1.5271908509
H -2.6843716086 -1.1370214953 0.3778882279
H -2.0732072519 -2.9025401448 -1.2820065426
H -2.7332373099 -3.5520021238 0.2131093732
H -0.3803922727 -4.0144480774 1.0127283630
H 0.2295071950 -3.4924686441 -0.5510052459
H -1.7095218267 -5.8343666839 -0.1130718869
H 0.0111363741 -5.9756662528 -0.5101923258
H -1.1180932068 -5.2902782821 -1.6894747947
H -1.9371485095 1.2845333638 -1.7446761079
H -4.0334264559 2.5702473638 -1.8942871469
H -5.1417630890 3.4045812827 0.1674511922
H -4.1186822069 2.9353188299 2.3835099297
H -2.0141598165 1.6446203469 2.5292184992
