24
CONF161
C 2.8553051854 0.8041240693 0.1267762129
C 1.4695107760 0.5786870533 0.7451266808
C 0.3998933880 0.3006957430 -0.3091659294
C -0.9398843890 -0.1034455227 0.3274717753
C -2.0885866354 -0.0240813357 -0.6955737242
C -3.3436750511 -0.6026119254 -0.0864720962
O -3.9527074859 -1.4969826179 -0.6275897313
O -1.7774427576 -0.7048285955 -1.8999849828
O -0.8612609900 -1.4013864918 0.8982429817
O 0.8793041084 -0.7600721031 -1.1444874019
O 1.0151338777 1.7662291306 1.4082163183
O 3.5086855072 -0.4020692799 -0.2337040711
H 2.7653815587 1.4991008431 -0.7252175672
H 3.4923783735 1.2875217089 0.8775970308
H 1.5234287328 -0.2736358415 1.4397847895
H 0.2607844457 1.2246593109 -0.8939608715
H -1.1604253550 0.6007743765 1.1392904365
H -2.2818589170 1.0436476557 -0.9086070189
H -3.6685421761 -0.1679279097 0.8801624809
H -2.4736457526 -1.3774997307 -2.0110221767
H -0.3032848620 -1.9289563708 0.3077326445
H 0.1935677756 -0.9110539491 -1.8154738729
H 1.5600516243 1.8959663556 2.1914339739
H 2.9278892195 -0.8468543879 -0.8648824887
