47
CONF495
C -5.5643684257 1.2959432168 -2.0175836183
C -4.2472946273 1.9843423221 -2.3758332435
C -3.8913930823 3.1474600984 -1.4429981880
C -3.7836725016 2.7719552945 0.0419471490
C -2.8324364602 1.6120440961 0.3785275243
C -2.8951312932 1.2515972134 1.8713673578
C -4.2103980312 0.5979616826 2.2950555413
C -1.4173512931 1.9796359601 -0.0349747957
O -0.5693176751 0.8165071642 0.1632106924
C 0.7420456195 0.9787230664 -0.1366496995
O 1.2053919877 2.0307641636 -0.5517054271
C 1.4842930992 -0.2578134449 0.1101342975
C 2.8116292917 -0.3137185203 -0.1220542768
C 3.6962118215 -1.4426797851 0.0715701282
C 3.2649275764 -2.6945855073 0.5576585239
C 4.1522842730 -3.7358531578 0.7260953877
C 5.5121192975 -3.5652945824 0.4137772473
C 5.9656663392 -2.3344692404 -0.0705860998
C 5.0579329972 -1.2958634109 -0.2340620894
O 6.2988668202 -4.6493106212 0.6167069893
C 7.6978566515 -4.5277607768 0.3142538346
H -5.8198542654 0.5276596857 -2.7541355315
H -5.5128180355 0.8099395014 -1.0374573008
H -6.3863810397 2.0205288524 -1.9866532498
H -3.4351542211 1.2460087859 -2.3775271084
H -4.3076843245 2.3695492659 -3.4011462953
H -4.6625187866 3.9235666805 -1.5382857935
H -2.9568265026 3.6081354640 -1.7857932999
H -4.7812763204 2.5177207921 0.4146369262
H -3.4651533514 3.6569826758 0.6105322676
H -3.1309696230 0.7249368697 -0.1983532260
H -2.0720011587 0.5667377120 2.1036254225
H -2.7207615005 2.1625126245 2.4613398534
H -5.0654298614 1.2689677426 2.1688797604
H -4.1757899774 0.3051076431 3.3490579506
H -4.4020706008 -0.3041714805 1.7029368412
H -1.3598796363 2.2665271270 -1.0891650569
H -1.0315797473 2.8085935713 0.5720431898
H 0.9164468795 -1.1029400081 0.4840984263
H 3.2834816785 0.5931090695 -0.4988666372
H 2.2207439447 -2.8520819471 0.8068938599
H 3.8198981894 -4.6985348710 1.1007425238
H 7.0076666413 -2.1761708964 -0.3186344191
H 5.4137163522 -0.3404980064 -0.6097933870
H 8.1331446634 -5.4995782948 0.5463627235
H 8.1647735638 -3.7545759076 0.9345470052
H 7.8484129403 -4.2976179725 -0.7463643678
