52
CONF12
C 1.1718933397 0.8618940470 2.3282004692
N 2.3559205809 0.2753222287 1.7091179288
C 2.9031905921 -0.8229279673 2.5119331902
C 4.2604104602 -1.2539669362 1.9635658095
C 4.1443206622 -1.6547687893 0.4933194896
C 3.4737226646 -0.5394755299 -0.3128692262
C 2.1342094352 -0.1110713450 0.3018101652
C 1.0395197185 -1.1845318012 0.0757419145
C 0.2682626078 -0.9458444121 -1.2240503128
N -0.4947106144 0.3092546531 -1.1790857232
C -0.5622127604 1.1241697147 -2.3261356771
C -0.3491427112 0.6197833169 -3.6150881506
C -0.3837791611 1.4668850981 -4.7201317196
C -0.6718770200 2.8197979198 -4.5693524218
C -0.9323440656 3.3262999109 -3.2980450748
C -0.8602809059 2.4899391317 -2.1886534681
S -1.0734904359 3.1571237817 -0.5508766942
C -1.8853704623 1.7600606433 0.1888865726
C -1.4804321769 0.4686945554 -0.1943432540
C -2.0727040846 -0.6277871518 0.4438340529
C -2.9961858448 -0.4126016352 1.4546931043
C -3.3840271860 0.8607833699 1.8539895097
C -2.8409074018 1.9525397211 1.1828694282
S -3.6687437494 -1.8642174875 2.3249706938
O -2.8210453223 -3.0671085114 1.8991323733
C -5.2328728132 -1.9852622280 1.3712819429
H 0.7948782283 1.6772474649 1.6998309910
H 0.3411016684 0.1481788259 2.4864777814
H 1.4412635044 1.2757957080 3.3065601862
H 2.2170331401 -1.6940408115 2.5439171260
H 3.0086809701 -0.4671421210 3.5442542644
H 4.6514992600 -2.0845366009 2.5624021975
H 4.9623516452 -0.4153882027 2.0620418267
H 3.5595944676 -2.5805369462 0.4176409837
H 5.1331741079 -1.8743692963 0.0748005773
H 4.1383246950 0.3332851741 -0.3423966464
H 3.3113234289 -0.8583823911 -1.3497935379
H 1.7988397766 0.8046867856 -0.2057300676
H 1.4770121216 -2.1861137303 0.0142890141
H 0.3473974722 -1.2066560459 0.9214350420
H 0.9885904258 -0.8498481534 -2.0404220521
H -0.3753175639 -1.8040187808 -1.4660311012
H -0.1598717492 -0.4372432077 -3.7607623167
H -0.1992890178 1.0548422024 -5.7071126444
H -0.7052804991 3.4778728580 -5.4310417642
H -1.1706153286 4.3765687552 -3.1604717319
H -1.8102520554 -1.6457427197 0.1792311189
H -4.0957334779 1.0077579996 2.6605151608
H -3.1316369918 2.9615332253 1.4579784237
H -5.8129572041 -1.0734713025 1.5372484149
H -4.9808307754 -2.1078773221 0.3145929067
H -5.7706045995 -2.8553847754 1.7558315702
