47
CONF28
C -3.6547374246 -3.9164020816 0.0548757592
C -3.4977410560 -2.4414933030 -0.3416966565
C -4.0711845718 -2.2553892810 -1.7496387101
C -2.0203815330 -2.0237199732 -0.2017513488
C -1.4980717271 -2.1495510212 1.2607803493
C -0.9499134117 -0.7731743808 1.6488190239
C -0.5285838588 -0.1320472535 0.3243416743
C -0.2871379037 1.3814032530 0.4535337370
C 0.8991395313 1.6747755706 1.3345921687
C 2.1981587513 1.5106802245 0.8424860366
C 3.3116566694 1.7446684284 1.6429816556
C 3.1129889406 2.1483780707 2.9581358666
Cl 4.5163077960 2.4519716326 3.9855467779
C 1.8395346596 2.3243676377 3.4819745760
C 0.7402939506 2.0851540730 2.6601906872
C -1.6565734368 -0.5632680814 -0.6534784719
O -2.7684793803 0.3407724903 -0.5835431611
C -1.2252799685 -0.5877787623 -2.1252407291
N -0.7453238274 0.6899319884 -2.6403706643
C -1.4525280551 1.7854598154 -2.9745573019
N -0.6354226051 2.7676219947 -3.3450679046
C 0.5944616202 2.1976826366 -3.2116548731
N 0.5804076752 0.9388829572 -2.7885296548
H -3.0910993220 -4.5528520293 -0.6385522038
H -3.2958467922 -4.1209137745 1.0669617093
H -5.0940733461 -2.6452236845 -1.7886215683
H -4.1004665703 -1.2057667808 -2.0474371495
H -3.4774804833 -2.8139449858 -2.4841812582
H -1.4401640148 -2.7048941776 -0.8393619359
H -2.2916561286 -2.4625303719 1.9447809540
H -0.7089870041 -2.9058630375 1.3164935098
H -0.1262032381 -0.8261870290 2.3660626270
H -1.7360279839 -0.1605538414 2.1129078851
H 0.3976323992 -0.6160772649 -0.0189282401
H -0.1157564738 1.8327385635 -0.5264000934
H 2.3448738211 1.1974526902 -0.1879304193
H 4.3142517570 1.6193307029 1.2494317268
H 1.7040256822 2.6438833666 4.5092539880
H -0.2591523547 2.2218123188 3.0635777010
H -2.0640933450 -0.9033542605 -2.7491727504
H -0.4096375700 -1.3018803478 -2.2502448023
H -2.5326539935 1.8187433750 -2.9377389899
H 1.5203876684 2.7125557707 -3.4358804196
H -4.7069746158 -4.2150448239 0.0042072917
H -4.0879285721 -1.8310546666 0.3575660232
H -1.1813850998 1.8499067811 0.8767125086
H -3.0777411530 0.3806075615 0.3307095214
