47
CONF107
C -5.5195728408 -3.1452383645 -0.3144085241
O -5.3407930476 -1.9909981891 0.5383904425
P -5.0965321603 -0.5490801504 -0.1209315316
S -3.8894769023 -0.4430550756 -1.6248840137
O -6.6056309154 -0.0529195558 -0.3445339260
C -6.8543842533 1.1776419734 -1.0606784323
O -4.7075298279 0.3140731412 1.1977833938
C -3.4059948016 0.2846597854 1.7056838337
C -2.5100407809 1.2750012813 1.3233234479
C -1.2359176963 1.2845052252 1.8719342765
C -0.8548358180 0.2878460703 2.7748036816
C -1.7661940747 -0.7036622043 3.1423976136
C -3.0534360982 -0.7006463921 2.6154182757
S 0.7544050291 0.2835400182 3.5504609122
C 1.8415600448 0.6910951012 2.1928227955
C 2.9092952439 1.5564713507 2.4377814787
C 3.8267259292 1.8352669499 1.4320493234
C 3.6560674780 1.2723609366 0.1735974781
C 2.5846655548 0.4245800471 -0.0932776926
C 1.6911768280 0.1225823419 0.9257249727
O 4.5863294800 1.6495624313 -0.7920843843
P 5.2351335186 0.6678740078 -1.9064388200
S 6.9212012735 1.3172933216 -2.5678885588
O 4.0157145541 0.5237611723 -2.9409678655
C 4.2433282257 -0.1198438650 -4.2167060276
O 5.2140323033 -0.8024412279 -1.2417293457
C 6.2197862438 -1.1448243719 -0.2608907855
H -5.5674395549 -4.0038953792 0.3559949210
H -4.6741983070 -3.2429034934 -1.0013085922
H -6.4538584250 -3.0582868716 -0.8774644662
H -7.9371298556 1.2429308483 -1.1717752392
H -6.4871381665 2.0317068002 -0.4828502189
H -6.3704015140 1.1508295066 -2.0414211592
H -2.8184029025 2.0274216987 0.6066945450
H -0.5311794374 2.0596675121 1.5912768221
H -1.4663042397 -1.4824251167 3.8356055060
H -3.7753610480 -1.4618936095 2.8877525661
H 3.0213612561 2.0157929556 3.4142791109
H 4.6622324708 2.5048298894 1.6038285856
H 2.4564895545 -0.0031333872 -1.0798374139
H 0.8633193804 -0.5499532944 0.7280733071
H 3.3128412117 -0.0096476615 -4.7742202264
H 5.0645224763 0.3727725516 -4.7450126273
H 4.4706117307 -1.1804202026 -4.0710575373
H 6.0819038691 -0.5480039624 0.6471335136
H 6.0684855485 -2.2006637370 -0.0344093490
H 7.2205623571 -0.9801305939 -0.6709880643
