34
CONF68
C -2.0609656068 -1.6571133439 -2.1604789621
C -3.1649505548 -0.8963611895 -1.4659518411
O -2.6919139621 -0.2525294175 -0.2316803788
P -1.7873861751 1.0560579409 -0.2365789275
S -1.9501952292 2.2951899539 -1.7144895567
O -1.9817297182 1.5918098425 1.2453293814
C -2.3975102467 2.9633880355 1.5756711231
C -1.1875553603 3.8176327632 1.8637290795
O -0.3065033582 0.2838772959 -0.1069512031
N 0.7197487078 1.1953128226 0.1270849063
C 1.8686902600 0.6151989280 0.2643994285
C 2.9050911561 1.5639306377 0.5630237833
N 3.7678211285 2.2963227230 0.8024645594
C 2.2491837482 -0.8061686156 0.1900179603
C 1.6654436023 -1.6792769458 -0.7384693401
C 2.0690612761 -3.0072383569 -0.7825960466
C 3.0422714267 -3.4790852788 0.0965352085
C 3.6308244465 -2.6118704879 1.0140669553
C 3.2482565994 -1.2776009791 1.0537506079
H -1.5909274961 -2.3725658928 -1.4795795745
H -2.4904946778 -2.2087718487 -3.0028017707
H -1.2970891971 -0.9794920814 -2.5534993784
H -3.5985695822 -0.1240638076 -2.1083447586
H -3.9571630460 -1.5606008288 -1.1161830853
H -3.0344506691 2.8433322340 2.4544858331
H -2.9935083828 3.3606101855 0.7494937870
H -0.5850841477 3.3805255059 2.6647945696
H -1.5217666105 4.8105478400 2.1813466814
H -0.5665123344 3.9282787603 0.9706712007
H 0.9206649120 -1.3178043321 -1.4344984048
H 1.6221659153 -3.6763413029 -1.5106950452
H 3.3475418463 -4.5198719626 0.0603578965
H 4.3938098720 -2.9724349571 1.6957937240
H 3.7137012569 -0.6028231469 1.7656931944
