22
CONF9
C 2.3796074299 -0.3100990126 -0.1894382772
C 0.8789152068 -0.1841701482 -0.4732210657
C 0.0603081281 -0.0307950294 0.8224630723
C -1.4466805963 0.2283615108 0.6603817142
C -2.2689953542 -0.7859844677 -0.1202318220
O -2.0414888081 -0.7026636327 -1.5354416950
O -1.6735025145 1.4892051945 0.0256206649
O 0.4972644697 1.1033761534 1.5865831544
O 0.5558901256 -1.3864073129 -1.1520551696
O 2.9609615214 0.8741730838 0.3885528529
H 2.8863594740 -0.5823419593 -1.1231243704
H 2.5496869138 -1.1137905905 0.5346218155
H 0.7087090473 0.7031994765 -1.1107529761
H 0.1858941860 -0.9635760974 1.4001096752
H -1.8487421525 0.2494376367 1.6883508466
H -2.0182226928 -1.8055042566 0.1868989929
H -3.3326539198 -0.6076206762 0.0867721004
H -2.0897896393 0.2405961285 -1.7498505227
H -1.0453294933 2.0998889716 0.4380846777
H 1.4566664102 1.1982733935 1.4552456805
H -0.3392022630 -1.2686198533 -1.5255562728
H 2.9843447223 1.5550614873 -0.2940129703
