55
CONF3
C 5.7967224851 -0.1523162000 0.3401131935
C 4.7855292585 0.9318384435 0.7483501522
C 5.0370089221 1.3801247458 2.1952498316
C 3.3625630556 0.4675861659 0.5479669814
C 2.5892024187 0.9747679200 -0.4319284245
C 1.1992939289 0.6066433388 -0.6534133854
C 0.4964153276 1.1367452129 -1.6721382745
C -0.9439515302 0.8353709748 -1.9266780661
C -1.6017807576 0.1572223791 -0.7237748078
C -0.7303970081 -1.0200207490 -0.1965005044
C 0.5770189427 -0.3597955649 0.3371592145
C 1.6503750471 -1.3472451267 0.8154872842
C 2.8177254327 -0.5996216175 1.4601701935
C -1.4567567933 -1.7010347086 0.9807872077
C -2.9068780487 -2.0686642809 0.6743394684
C -3.7060177460 -0.8240758161 0.2961110429
C -3.1221473572 -0.1302810462 -0.9596238664
C -3.4554016254 -0.9553074913 -2.2095330711
C -3.8213554001 1.2254503411 -1.1258595438
O -4.4867479763 1.5602923146 -2.0868044228
O -3.6292060254 2.0350503131 -0.0652230189
C -4.2526259847 3.3384436160 -0.1477570865
C -0.3787244888 -2.0552759725 -1.2754412421
H 5.6454301848 -0.4576651588 -0.6999566991
H 6.8191850614 0.2265968037 0.4438645173
H 5.7044526355 -1.0395292517 0.9754331651
H 4.9407839692 1.7968271468 0.0904394887
H 4.3242722652 2.1534372624 2.4996219234
H 4.9446335351 0.5376607594 2.8893747963
H 6.0493421325 1.7852257398 2.2954236615
H 3.0050082176 1.7302029553 -1.0993415186
H 0.9942866972 1.8252160472 -2.3546437501
H -1.4764750852 1.7674301300 -2.1679291882
H -1.0360191702 0.2113096211 -2.8279667120
H -1.5837500931 0.8873471235 0.0962315608
H 0.2886094819 0.2347982443 1.2208659246
H 1.2265550929 -2.0625075626 1.5273915499
H 2.0349296721 -1.9179825796 -0.0382231628
H 3.6122835968 -1.3059953780 1.7290803138
H 2.4918406734 -0.1423708859 2.4070360059
H -1.4511331216 -1.0131383535 1.8390389837
H -0.9026749631 -2.5957643261 1.2858723423
H -3.3605556673 -2.5311668827 1.5586627908
H -2.9543888327 -2.8192440254 -0.1230065673
H -4.7578084300 -1.0740440448 0.1103572748
H -3.6786605607 -0.1240516896 1.1388217040
H -4.5404809859 -0.9971427197 -2.3364833996
H -3.0923898745 -1.9782106251 -2.1222254409
H -3.0350734011 -0.5166342681 -3.1166805661
H -3.9866529333 3.8449714090 0.7794251021
H -5.3371539765 3.2348683337 -0.2322446151
H -3.8670612596 3.8873601230 -1.0104843837
H 0.2308729386 -1.6146197404 -2.0704595098
H -1.2644265750 -2.4918187367 -1.7364424371
H 0.1923523805 -2.8772619532 -0.8337783103
