56
CONF4
O 5.5356786570 1.2975399415 -2.3394151179
C 5.1340703749 1.9256329554 -1.1285374197
C 3.6247914166 2.1415984008 -1.1045220392
N 2.9181274935 0.8854615807 -1.3819694575
C 1.5365006707 1.1327882253 -1.8052078798
C 0.8330822016 -0.1750566046 -2.1293510494
N 0.8391933732 -1.0444245258 -0.9568399949
C 0.0368769890 -2.2489272257 -1.1448102764
C -0.3409161579 -2.9075999186 0.1876086931
C -0.7757283683 -1.8650661071 1.2222063901
N -1.7954942521 -0.9607317564 0.6873495525
C -3.0465987342 -1.4794504120 0.3153762752
C -3.5692150196 -2.6323634620 0.9138379651
C -4.8041588078 -3.1401820201 0.5236672226
C -5.5607402516 -2.4930028776 -0.4455079537
C -5.0659364830 -1.3329931378 -1.0336811449
C -3.8123404097 -0.8480573153 -0.6780358655
S -3.1247550104 0.5297900931 -1.5667433094
C -2.1631760691 1.2528794989 -0.2638380423
C -1.9245504174 2.6243184624 -0.2726922932
C -1.0610600563 3.1960918029 0.6517425544
C -0.4857751461 2.3819751600 1.6230827494
C -0.7672686187 1.0216136279 1.6769664998
C -1.5779241236 0.4221921025 0.7064378615
C 0.4162376838 3.0007244115 2.6486432115
F 1.1679089594 2.0812918436 3.2997619281
F 1.2734689897 3.8914444189 2.0891189676
F -0.2801446986 3.6802795927 3.5959982012
C 2.2143900189 -1.3169061086 -0.5538576368
C 2.9256732776 -0.0120281330 -0.2239149778
H 4.8202154872 0.6752510339 -2.5445918042
H 5.6395017003 2.8961276781 -1.0715178700
H 5.4612819399 1.3377564285 -0.2551057818
H 3.3137543489 2.5891403083 -0.1401282804
H 3.3653051886 2.8500420854 -1.9004216829
H 1.5531689538 1.7682389371 -2.6984646074
H 0.9633119073 1.6619730423 -1.0182057868
H -0.2071565429 0.0355869086 -2.4041978957
H 1.3291067154 -0.6523504051 -2.9991950085
H -0.8867268772 -1.9460549454 -1.6526507323
H 0.5342377090 -2.9928830952 -1.7980083403
H -1.1334951413 -3.6396490342 -0.0016341554
H 0.5008113551 -3.4658676848 0.6147711834
H 0.0949938004 -1.2539588944 1.4550620735
H -1.0982906727 -2.3444250537 2.1570205528
H -3.0093496177 -3.1393231956 1.6904040543
H -5.1780578784 -4.0425254152 0.9960030162
H -6.5286517612 -2.8809934403 -0.7424869572
H -5.6406916155 -0.8108578908 -1.7920483964
H -2.3956558383 3.2387990439 -1.0329772270
H -0.8416320465 4.2568911475 0.6181293966
H -0.3375966999 0.4255519568 2.4708496428
H 2.7749498769 -1.8526329628 -1.3475691249
H 2.2181423589 -1.9539218742 0.3389733874
H 2.4273708768 0.4618006262 0.6470448341
H 3.9609343196 -0.2305473054 0.0594298694
