39
CONF190
C 3.2141361983 1.6735529726 -0.9488125135
C 2.7019773727 0.5782940932 -1.8841488439
C 2.3702551568 -0.7392709292 -1.1744511082
C 1.3339957212 -0.5974456137 -0.0835802503
C 0.8389305078 -1.8983628062 0.5376653372
O -0.5341203920 -1.6119196444 0.8867247156
C -0.8884956539 -0.3584263963 0.3004748452
C -2.2501734212 -0.5342445756 -0.3912287201
N -2.1707558012 -1.4916971223 -1.4770303361
C -2.1500455507 -2.8379894994 -1.4091363540
N -1.9630368478 -3.3558354029 -2.6175048830
C -1.8660116465 -2.2473644725 -3.4057123117
N -1.9807142136 -1.0941467377 -2.7607676380
O 0.1089159097 -0.0715396024 -0.6482017932
C -0.9734456174 0.7231468478 1.3852472152
C -1.0636972459 2.0917829023 1.1051771625
Cl -1.1020129867 2.7089537446 -0.5425917616
C -1.1295408143 3.0499828168 2.1118326268
C -1.1161302178 2.6228661140 3.4321128555
Cl -1.2005878380 3.8242715357 4.7084287136
C -1.0402984635 1.2773076674 3.7612376430
C -0.9710020231 0.3484837416 2.7308156506
H 3.5353223143 2.5508673037 -1.5185929513
H 2.4380541815 2.0023442788 -0.2496978906
H 4.0689637358 1.3203021133 -0.3609309542
H 3.4576250230 0.3690247272 -2.6501404370
H 1.8109604983 0.9342694254 -2.4146192383
H 3.2769279385 -1.1519066423 -0.7127958462
H 2.0105494053 -1.4765761547 -1.9030100673
H 1.6794515288 0.0855002103 0.7065306079
H 1.3889144805 -2.1783242339 1.4404706469
H 0.8563857005 -2.7212231891 -0.1884964715
H -2.9611620962 -0.8949379177 0.3569716872
H -2.6084983850 0.4126801878 -0.7962611064
H -2.2815579430 -3.3790063546 -0.4819612637
H -1.7127972450 -2.2875379429 -4.4769244685
H -1.1912398587 4.1030180434 1.8662749584
H -1.0326621488 0.9569363939 4.7963081499
H -0.9033790614 -0.7058290884 2.9703243138
