45
CONF162
C -5.3847574225 -0.9422894873 2.9660067327
O -5.1057263657 0.0011504512 1.9117412369
N -3.8452581569 -0.2363281157 1.4059124971
C -3.5290590652 0.5683997758 0.4388075375
C -4.3357258790 1.6161186820 -0.1273781507
C -5.5241355895 2.2230999369 0.2111630548
C -5.8058173661 3.1688057635 -0.8093185484
C -4.7886761834 3.0780852183 -1.7121941869
O -3.8855401547 2.1450252755 -1.3201255178
C -2.1206186139 0.3738066610 -0.0673583833
O -1.3675212269 1.3246425130 -0.2690805854
N -1.7487924479 -0.9148401946 -0.2584767245
C -0.4231908809 -1.2531971093 -0.6686054470
C 0.8070647943 -0.8848895079 0.2327073876
N 1.3783263826 -0.2057499083 -0.9484949984
C 0.2732747556 -0.3938237071 -1.7546498516
O 0.0289183300 -0.0534803866 -2.8885306366
C 2.7324961082 0.0678078444 -1.1958637894
C 3.5940853239 -0.9473952052 -0.9461154167
C 2.9921511543 -2.2831792296 -0.6221336510
S 1.9185717131 -2.1785887027 0.8894973121
C 5.0930349966 -0.8606124599 -0.9177548307
O 5.6070554764 -1.5479403507 0.2464034505
C 5.4673288188 -0.8636246560 1.4259176950
O 5.0093380935 0.2668726800 1.5020684471
N 5.9134719752 -1.6064985593 2.4557460297
C 3.0216597683 1.4627527913 -1.5994822554
O 2.2191781222 2.3684265432 -1.4805296913
O 4.2399318870 1.6154737959 -2.1497102939
H -6.3894457909 -0.6939789424 3.3110320918
H -5.3593027613 -1.9650481831 2.5782629406
H -4.6645761147 -0.8249609346 3.7811745841
H -6.1150699939 2.0191482131 1.0879201069
H -6.6567136880 3.8309622567 -0.8673262294
H -4.5710121353 3.5825459897 -2.6413152363
H -2.4112085270 -1.6522506843 -0.0671800772
H -0.3915207533 -2.3062141654 -0.9605311675
H 0.5583804413 -0.1960909045 1.0458142201
H 2.3777437840 -2.6367467970 -1.4571492487
H 3.7543373798 -3.0298949099 -0.3972239534
H 5.5078015657 -1.4143279817 -1.7663526074
H 5.4571218716 0.1631807308 -0.9374317947
H 5.8615859287 -1.2284602129 3.3862494359
H 6.2519158000 -2.5442915646 2.3174900245
H 4.3588939422 2.5573661418 -2.3636017176
