45
CONF1623
O 2.9190960109 -1.2092181696 2.9096788704
C 2.8174215371 0.2034547610 2.7420013290
C 2.4421793154 0.6136423191 1.3300190524
O 3.5354574597 0.2961986916 0.4209675631
C 3.1278119040 -0.7068965112 -0.5010726844
O 3.3356240028 -2.0061614388 0.0330329730
C 3.9465930426 -0.5247109528 -1.7750842212
O 3.8108040355 0.7757671007 -2.3299254933
C 1.6201988331 -0.4784552415 -0.6597260417
O 0.9949851149 -1.6198655287 -1.2034362092
C 1.2019504441 -0.0887460793 0.7660699822
O 0.1104168222 0.8391715782 0.8571317624
C -1.1451350524 0.2857724127 0.6372281157
O -1.3318777013 0.1638921925 -0.7804361471
C -2.5699835146 -0.4937148501 -1.1047584254
C -2.5336071555 -0.7963679378 -2.5844681439
O -1.4714046152 -1.7374495837 -2.7950306315
C -3.7273083163 0.4100955001 -0.6877187376
O -3.7646962487 1.6292612947 -1.4390156534
C -3.6029681200 0.6998833255 0.8127135535
O -4.6048828979 1.6120724732 1.2591662531
C -2.2105538840 1.2267800151 1.1826351087
O -2.0637404551 1.3063857412 2.5963520542
H 3.3429454106 -1.5699613330 2.1138320547
H 2.0377830522 0.5557384092 3.4276794162
H 3.7613087052 0.7017955429 3.0100512948
H 2.2916742366 1.6997871493 1.3019972049
H 4.2821593232 -2.2072533844 -0.0170650077
H 3.5883881957 -1.2377231264 -2.5232384942
H 5.0001227547 -0.7551946741 -1.5458059095
H 4.0820648136 1.4038771102 -1.6464231439
H 1.4976291012 0.4015098605 -1.3065975836
H 0.1462089337 -1.3542607736 -1.5987883476
H 0.9573303978 -0.9958575611 1.3349351874
H -1.2270244784 -0.7137703731 1.1034746297
H -2.6406960364 -1.4416206316 -0.5454040231
H -3.5017575137 -1.2201992240 -2.8856972488
H -2.3573114897 0.1254810781 -3.1521320597
H -1.2838048809 -1.7760123338 -3.7405967649
H -4.6827680165 -0.0920251332 -0.8765740774
H -2.8603952300 1.9719491108 -1.4944026906
H -3.7721187722 -0.2343437083 1.3640770762
H -4.6038601415 2.3493419716 0.6294894163
H -2.0507951566 2.2158655890 0.7200496762
H -2.8434634628 1.7720854235 2.9299490700
