26
CONF6
C 1.9309889923 1.4111177690 -0.9447766355
C 2.1724450932 -0.0709370753 -0.9036070278
C 1.6706198737 -0.9067778239 0.0158790422
C 0.7662242562 -0.5652829478 1.1744277211
C -0.6202667695 -1.0874091353 0.9192397615
C -1.7774580703 -0.3972288068 0.8195063539
C -3.0636029759 -1.1242749824 0.5222944304
C -1.8456716933 1.0504940850 0.9853143745
C -2.9610860704 1.7913486348 0.8939642935
C 3.0508701155 -0.5833826014 -2.0127683004
H 2.8831671976 1.9525064384 -0.8780292276
H 1.4838882594 1.6893150882 -1.9075027632
H 1.2757920554 1.7693065769 -0.1496528702
H 1.9062976211 -1.9671150473 -0.0822080203
H 1.1585469903 -1.0616883833 2.0741932000
H 0.7704313409 0.5048887167 1.3821190307
H -0.6698362409 -2.1665520938 0.7701018634
H -2.8905698642 -2.1976765932 0.4193455605
H -3.5174326354 -0.7566075884 -0.4056218350
H -3.7994451219 -0.9674162458 1.3197096040
H -0.9128637207 1.5659170480 1.1988584417
H -3.9335007333 1.3559976635 0.6850594207
H -2.9220730100 2.8675823472 1.0290144898
H 3.2035151264 -1.6636146835 -1.9452813400
H 2.6102420325 -0.3526869659 -2.9911370122
H 4.0307771415 -0.0898232879 -1.9884424497
