35
CONF24
C -1.8809081936 -1.1719536453 3.8367743658
C -2.0526761668 -2.0140539688 2.6005340660
O -0.9792967697 -1.6137500172 1.6690729014
C -0.9525772111 -2.2026619685 0.5002614732
N -1.7944715654 -3.1219985361 0.1041697379
C -1.6447842997 -3.6256927366 -1.1256485897
C -0.6964868818 -3.2840616086 -2.0520334682
C 0.2002333763 -2.2962135226 -1.6249991461
N 1.2389323125 -1.6880212153 -2.2080964464
C 1.6548726441 -0.8481697287 -1.2382289596
N 1.0005813179 -0.8428976756 -0.0828080116
N 0.0509320649 -1.7838283243 -0.3367292600
S 2.9705133649 0.3524049353 -1.5006466326
O 3.7781632861 -0.1108329998 -2.6278060482
O 3.5454165128 0.6457130426 -0.1894350245
N 2.1880851760 1.7678393887 -2.0447213162
C 1.3763917136 2.4775082519 -1.1243502406
C -0.0147710521 2.2935109991 -1.0443983584
C -0.7994875154 2.9872509621 -0.1348216110
C -0.1913826339 3.8908166693 0.7283447064
C 1.1755037195 4.1298623362 0.6584855170
C 1.9419123849 3.4404691174 -0.2725501089
Cl 3.6356687970 3.8450920555 -0.4117956753
Cl -0.8001122812 1.1848706613 -2.1497183651
F -2.5494662119 -4.5617985270 -1.4402904371
H -1.9792453103 -0.1085851089 3.6032621643
H -0.9085310017 -1.3513390626 4.3027010982
H -2.6625975602 -1.4430562349 4.5520021344
H -1.9364268100 -3.0827125300 2.7987465346
H -3.0080356749 -1.8364364551 2.1001838070
H -0.6395803554 -3.7297543183 -3.0353275599
H 1.7517640649 1.5951321846 -2.9499067352
H -1.8690181917 2.8170787482 -0.1021122051
H -0.7938004085 4.4299302438 1.4512793414
H 1.6446854713 4.8603385831 1.3067008511
