46
CONF199
C -7.3695749132 2.2370031735 -1.2993934715
C -6.1576941518 2.2613548234 -0.3701379598
C -5.2662429182 1.0319206233 -0.5555649246
C -4.0784075947 1.0698151185 0.3860540242
O -3.2545336924 -0.1300816719 0.2288954369
C -2.3528555519 -0.1199419868 -0.7597431856
O -2.1090697287 0.8219470494 -1.4823718520
C -1.7052275481 -1.4989598328 -0.8880421023
C -2.5920708171 -2.3909392085 -1.7457445254
O -0.4484015637 -1.3978598946 -1.5557145503
C 0.5865615024 -0.7837046728 -0.9047839465
C 1.7800257474 -0.7016756864 -1.6312524770
C 2.8992256136 -0.1097382138 -1.0676336777
C 2.8170815150 0.3965275547 0.2245559100
C 1.6448663719 0.3267024894 0.9552669754
C 0.5153529828 -0.2648781835 0.3899358885
O 3.9221395009 1.0554824034 0.7825063078
C 4.9425071299 0.2964217585 1.2552462820
C 6.0934555908 0.9883401653 1.6589760047
C 7.1954666103 0.3461868737 2.1691127262
C 7.1586838358 -1.0534887244 2.2867608795
C 6.0184451475 -1.7652723890 1.8930634861
C 4.9187863346 -1.0930786458 1.3812126576
C 8.2836178169 -1.7435213563 2.8089905748
N 9.2013035491 -2.3098405950 3.2350915001
F 6.1039798859 2.3307366027 1.5361923533
H -7.9860305259 1.3512000522 -1.1122359426
H -7.9965389699 3.1221107040 -1.1553821511
H -7.0554509434 2.2117117821 -2.3484494465
H -5.5671819963 3.1677340183 -0.5549094122
H -6.4924947686 2.3124537853 0.6739278499
H -5.8454810814 0.1195636717 -0.3670931640
H -4.9087872256 0.9870753925 -1.5916291879
H -3.4530279535 1.9504331388 0.2152556915
H -4.3946544089 1.0418641340 1.4311210956
H -1.5785886345 -1.9404818553 0.1082260616
H -2.7237336682 -1.9511933283 -2.7383322810
H -2.1289127640 -3.3753461293 -1.8457582184
H -3.5696967067 -2.5062328193 -1.2721368141
H 1.8133329934 -1.1042269901 -2.6380495012
H 3.8294985555 -0.0392820480 -1.6221000031
H 1.6082687129 0.7328526584 1.9605323355
H -0.3947720704 -0.3097084667 0.9759079274
H 8.0659031442 0.9193604627 2.4670943932
H 5.9942505415 -2.8443982468 1.9909868778
H 4.0366774005 -1.6449475804 1.0785682365
