53
CONF387
C 0.9929791233 3.3103556420 0.3163501511
C 2.0861190384 2.3477264513 -0.1605927044
C 3.4601564687 2.9745094700 0.1373078102
C 1.9629829548 2.1799587069 -1.6880041560
O 0.6964631227 1.6099657433 -2.0351349753
C 0.7847507848 0.3655250205 -2.7427167779
C -0.5879348047 -0.2440116619 -2.7745664572
C -1.2014306711 -0.5725055251 -1.5642898094
C -2.4870341458 -1.0998900437 -1.5685748870
C -3.1613647862 -1.3385044003 -2.7652709577
C -2.5349912849 -1.0293498200 -3.9669544922
C -1.2572820412 -0.4708764974 -3.9766486968
O -3.1363115702 -1.4846667223 -0.4097636592
C -2.9193924725 -0.7848975889 0.7647761432
C -2.8140348131 0.6048739421 0.7964450342
C -2.6626316391 1.2418767304 2.0243662480
C -2.6275474441 0.5063312349 3.2081784969
C -2.7533410604 -0.8805160672 3.1589101457
C -2.8965160874 -1.5325785846 1.9378798717
C 1.9818718480 0.9714253071 0.4967576406
C 2.9262992054 -0.0196782706 0.1943581820
C 2.8477019573 -1.2908650050 0.7462594583
C 1.8111449522 -1.5767899436 1.6218360748
C 0.8670237794 -0.6257346983 1.9681744914
C 0.9616467788 0.6410230714 1.3918445154
O 1.8255687765 -2.8719668578 2.1828711613
C 0.7361188922 -3.6529162308 2.1109551639
F -0.2699143880 -3.2462843204 2.9220725322
F 1.0939232364 -4.8823181236 2.5045430780
Br -0.0316810826 -3.7826663831 0.2624382996
H -0.0070456083 2.9353889263 0.0801998221
H 1.1204737927 4.2757021493 -0.1835733507
H 1.0580773693 3.4781059814 1.3961750483
H 3.5852922117 3.1116653958 1.2158624826
H 3.5372665226 3.9549638158 -0.3447644670
H 4.2819822197 2.3508201342 -0.2261843905
H 2.0403181628 3.1695915595 -2.1608348184
H 2.7834874069 1.5607754823 -2.0723127014
H 1.4832091044 -0.3075441783 -2.2219225731
H 1.1570751776 0.5276708417 -3.7649607035
H -0.6755325295 -0.4060974513 -0.6296326403
H -4.1608428670 -1.7597707332 -2.7398236259
H -3.0557669992 -1.2099670616 -4.9020252305
H -0.7812244106 -0.2096402860 -4.9168691643
H -2.8475404215 1.1782072002 -0.1236994028
H -2.5770119578 2.3239779942 2.0526393744
H -2.5075921308 1.0111178966 4.1610706663
H -2.7298400941 -1.4637031530 4.0743713884
H -2.9848766986 -2.6120871835 1.8814051375
H 3.7381950669 0.1894763864 -0.4946943597
H 3.5734747853 -2.0585969140 0.5009429446
H 0.0665001275 -0.8473964615 2.6637904401
H 0.2085788569 1.3710291961 1.6610339021
