54
CONF6
C -1.8844349469 1.4264136349 -0.2159749692
C -1.6411579454 -0.0801334586 -0.3960193352
C -0.9267512900 -0.3485385198 -1.7116728289
C 0.4979765705 0.2378324268 -1.7262349255
C 1.3331573866 -0.1589165546 -0.4867233149
C 0.5663804581 -0.0336602812 0.8576800117
C -0.7983114681 -0.6942595589 0.7352115112
C -1.7269160007 -0.6736558540 1.9551539783
C -3.1510170727 -0.8587095392 1.3601282522
C -2.9840232227 -0.8781989946 -0.1745918507
C -4.1167226202 -0.2892310469 -1.0058618992
O -4.2245914672 -0.6109871254 -2.1828689878
C -5.1355501716 0.6491506869 -0.4107246631
O -5.9886477371 1.1932717904 -1.3953788318
O -2.8329180080 -2.2465767808 -0.5661565468
C 1.3809569835 -0.6564524333 1.9910209566
C 2.7748303092 -0.0199261352 2.0982989738
C 3.4586125637 -0.0702217756 0.7700331973
C 4.6113194502 -0.7512788382 0.6038386890
C 5.2806824464 -0.8797764883 -0.6830758417
O 6.3355560706 -1.5260190744 -0.8108190811
C 4.6611658048 -0.1861420980 -1.8071055207
C 3.5039115594 0.4792899509 -1.6669107125
C 2.7373007483 0.5851607671 -0.3851225627
C 2.5673428217 2.1047197617 -0.1236294279
O 1.1318542525 -0.1768188452 -2.9475381080
H -2.3802411787 1.6602464489 0.7298968842
H -2.5001883015 1.8141896975 -1.0350130025
H -0.9458916150 1.9840963114 -0.2352727508
H -0.8353343058 -1.4323495135 -1.8598370368
H -1.4699178190 0.0665428056 -2.5688152608
H 0.4428835056 1.3282574437 -1.8061264463
H 1.5678081529 -1.2291096155 -0.6124235375
H 0.4122281297 1.0253335632 1.0976122153
H -0.6318295738 -1.7443215366 0.4560133911
H -1.4806816532 -1.4604972944 2.6720450011
H -1.6479865413 0.2840151860 2.4814346308
H -3.6201905836 -1.7949165556 1.6717590398
H -3.8081985968 -0.0471716602 1.6787696575
H -5.7031320282 0.0526763397 0.3271293771
H -4.6478915751 1.4568778011 0.1481896303
H -5.8406727661 0.6661030168 -2.1988600596
H -2.9141232564 -2.2754746618 -1.5316294321
H 1.4870251108 -1.7346322584 1.8076399265
H 0.8534455665 -0.5356463696 2.9429651094
H 2.6630966754 1.0220324306 2.4246235990
H 3.3789885394 -0.5366115861 2.8495095801
H 5.0864812529 -1.2419896304 1.4504545164
H 5.1889326685 -0.2085688905 -2.7568745628
H 3.0974103004 1.0298264530 -2.5073967907
H 2.0540354003 2.5777915072 -0.9648381612
H 3.5533433782 2.5684829198 -0.0242413643
H 2.0018879138 2.3094738854 0.7855681859
H 1.2087073285 -1.1409919549 -2.9240880978
