37
CONF359
C 0.2326945927 0.0008208944 -3.4777159030
C -0.9450015625 -0.6608979839 -2.8026947989
O -0.5030209738 -1.1347185058 -1.4900579458
P -1.3800642461 -0.8583255417 -0.1917173888
O -2.1933508027 0.3791515905 -0.1651238332
O -2.1714828053 -2.2255040105 0.0062594809
C -3.3355932445 -2.2610086686 0.9003864902
C -2.9357066213 -2.1788425111 2.3567976336
O -0.2361205858 -0.9614907490 0.9516167150
P 0.6811732130 0.2591648781 1.5479308227
O 0.2133863056 0.7502087193 2.8560931784
O 2.1152875935 -0.4122262973 1.5909927489
C 2.7493571911 -0.9413634018 0.3779567711
C 3.7954068394 0.0261254143 -0.1249974264
O 0.7493807223 1.3076198276 0.3464745075
C 0.0581513162 2.6014169524 0.4457599727
C 1.0027310539 3.6479481429 0.9867328640
H -0.0600582847 0.3348691869 -4.4779603063
H 1.0675208210 -0.6986249350 -3.5769467259
H 0.5655428548 0.8691230827 -2.9020531396
H -1.7771016586 0.0380588914 -2.6723659207
H -1.2948157491 -1.5384044075 -3.3550978625
H -3.8103621110 -3.2164714406 0.6677157055
H -4.0095946723 -1.4463271129 0.6176606119
H -3.8277327719 -2.3180253810 2.9760153461
H -2.2131386119 -2.9602583979 2.6074252273
H -2.5017237612 -1.2053131518 2.6026848709
H 1.9836640349 -1.1437474011 -0.3785038682
H 3.1920157109 -1.8917975503 0.6863575974
H 4.5400751887 0.2277857411 0.6496562332
H 4.3045476538 -0.4123183474 -0.9895123992
H 3.3370992910 0.9692057604 -0.4324790630
H -0.2607046981 2.8179162730 -0.5761831667
H -0.8297665307 2.4837924016 1.0709586293
H 1.3073996599 3.4019308347 2.0077794381
H 1.8937672755 3.7320363704 0.3580044404
H 0.4961391567 4.6184905529 1.0021508386
