49
CONF21
C -4.4421611048 3.6211678216 0.0515306385
C -3.8912386385 2.2435013318 0.2951137183
C -3.7502242579 1.3729903131 -0.7184804987
C -3.2314978451 -0.0010763095 -0.6311409815
C -2.3187501765 -0.5264119118 -1.7527801262
C -3.7067417130 -1.1274560638 -1.5065790472
C -4.7289964412 -0.8655988253 -2.5910354264
C -3.8335323991 -2.5008303416 -0.8871396768
C -1.0880920492 -1.2345740450 -1.3807456264
O -0.8619007261 -1.8143991150 -0.3371484225
O -0.1738889904 -1.1550568976 -2.3951008179
C 1.1075489212 -1.7823196700 -2.1615384438
N 1.9273976654 -1.0114222453 -1.2726881954
C 2.4429677137 0.2581610142 -1.5781304209
O 2.2916579227 0.8340045966 -2.6374588731
C 3.1845222886 0.7130065866 -0.3708014157
C 3.1198080777 -0.2517642864 0.5614761817
C 2.3323765510 -1.3947500458 0.0192359225
O 2.1065814266 -2.4652300821 0.5427622789
C 3.7696674244 -0.1942457757 1.8950086307
C 4.7855300026 0.9583631053 1.9203423159
C 4.2127494063 2.2295857816 1.2794907295
C 3.8810531511 2.0136835837 -0.2054036332
C -3.5375574745 1.9652635875 1.7276105542
H -3.7225036624 4.3863406466 0.3696040344
H -4.6809979997 3.7850477679 -1.0024233315
H -5.3511810356 3.7835182202 0.6446843021
H -4.0419361752 1.7103080490 -1.7113697781
H -2.9001618702 -0.3341118704 0.3478911355
H -2.2387189118 0.0907437540 -2.6414700652
H -5.7369186001 -0.8631507594 -2.1605575796
H -4.6839360980 -1.6623765862 -3.3411483341
H -3.1242022661 -2.6520120714 -0.0726221976
H -4.8483354550 -2.6229714729 -0.4924623254
H -3.6697823325 -3.2791750185 -1.6413571359
H 0.9798307227 -2.7780653637 -1.7303519045
H 1.5609271093 -1.8300512054 -3.1528853473
H 4.2473382244 -1.1550334512 2.1203247682
H 2.9985216598 -0.0517658264 2.6655211798
H 5.0894492117 1.1589245368 2.9520235584
H 5.6847039829 0.6529726698 1.3702001243
H 4.9212675269 3.0569410340 1.3818272872
H 3.2969387323 2.5183970002 1.8108272344
H 3.2582301582 2.8257671576 -0.5986804121
H 4.7973586175 2.0128414678 -0.8128066926
H -3.1452821789 0.9617498838 1.8963579242
H -4.4197043365 2.1006698571 2.3659039309
H -4.5712655163 0.0867240174 -3.1011202394
H -2.7899637494 2.6889045574 2.0763126142
