82
CONF15
C -4.8364397301 2.8879964626 -2.5306356366
C -4.1163496525 2.6008177101 -1.2423340534
C -3.5071199771 3.5715883686 -0.5595467189
C -4.2239447197 1.1604499302 -0.7925010451
C -5.6249536241 0.9076303934 -0.1149877572
C -5.3252659292 0.2526502982 1.2514952166
C -3.9694297456 -0.4350534260 1.0419155581
C -3.2151275428 0.6589841423 0.2551739596
C -1.8270016067 0.1953397417 -0.1918867605
C -1.0849429439 1.1809102639 -1.0927058064
C 0.2386681435 0.5939151583 -1.5856806693
C 1.1370535296 0.1588731705 -0.4206816034
C 2.6156064971 -0.1832234824 -0.8433523511
C 3.2262849166 1.0901535766 -1.4781092044
C 4.7453657403 1.0249646396 -1.6318544878
C 5.4469106653 0.7459993034 -0.3115892456
C 4.9551117486 -0.5537644528 0.3738350907
C 3.4011727419 -0.4644396102 0.4734762782
C 2.7548594062 -1.6074162304 1.2578403897
C 1.3344739924 -1.2311950918 1.6799753719
C 0.4066494603 -0.8765433226 0.5000233566
C -0.9494825325 -0.2149205618 1.0413894192
C -1.7382009623 -1.2053092170 1.9426672080
C -3.1650876521 -0.7563775647 2.3014963202
C -0.6528680596 1.0227252546 1.9207007147
C 0.1077228805 -2.1883794129 -0.2541530142
C 5.4744286190 -1.7965227257 -0.3645617322
C 5.5572406985 -0.5724504371 1.7910232292
O 6.8712433832 0.7790604666 -0.4713187129
C 2.7002194617 -1.3168625045 -1.8890415338
C -4.1921748269 -1.7061232626 0.2078557474
O -4.9898564107 -2.6092585119 0.9880217831
H -5.8798488672 2.5529530931 -2.4757789202
H -4.8262308809 3.9523483983 -2.7768430556
H -4.3739783986 2.3349731412 -3.3582824712
H -3.5197910180 4.5953602756 -0.9210068470
H -2.9761700204 3.3921266679 0.3687786552
H -4.1469818970 0.5336736167 -1.6933118069
H -6.1725299067 1.8468581033 0.0032785817
H -6.2439456734 0.2527653428 -0.7359684479
H -5.2184789769 1.0223262547 2.0255935022
H -6.1090725721 -0.4386752174 1.5706741669
H -3.0960506254 1.4774360651 0.9747333239
H -1.9813913101 -0.7085452664 -0.7947353107
H -1.7143711839 1.4433820057 -1.9507063624
H -0.9018795629 2.1225322150 -0.5610246124
H 0.7498978111 1.3433257135 -2.1969979557
H 0.0253815128 -0.2511219339 -2.2517150860
H 1.2728328318 1.0527473223 0.2007523683
H 2.9755944762 1.9568608921 -0.8493780469
H 2.7811463517 1.2747804916 -2.4614941452
H 5.0288371124 0.2570642295 -2.3651219601
H 5.1187899235 1.9759322043 -2.0288183530
H 5.2313084281 1.5752614463 0.3780476551
H 3.2316212469 0.4425157640 1.0811465111
H 3.3330006003 -1.8215310827 2.1618007471
H 2.7558425799 -2.5350203857 0.6739942096
H 1.4156095291 -0.3714500976 2.3537840083
H 0.8918466991 -2.0499193974 2.2597660133
H -1.8106282582 -2.1834081010 1.4621407575
H -1.1770079849 -1.3677444579 2.8697709776
H -3.6559600915 -1.5444251855 2.8821772114
H -3.1386187657 0.1385086520 2.9363948017
H 0.0427787141 1.7304585925 1.4686021796
H -0.2409432262 0.7231531063 2.8876916799
H -1.5659797605 1.5790542512 2.1390008677
H 1.0293337917 -2.6677442664 -0.5776167868
H -0.5050675327 -2.0502873413 -1.1466966711
H -0.4002140575 -2.9067142871 0.3932150721
H 5.2824556379 -1.7754145005 -1.4394258014
H 6.5546162804 -1.8949679374 -0.2114329636
H 5.0119144119 -2.7038857267 0.0354939822
H 6.6269527455 -0.3529886457 1.7330598696
H 5.4426775029 -1.5477830951 2.2725192525
H 5.0858388886 0.1824853955 2.4308978362
H 7.0971145820 0.1693706429 -1.1835741162
H 1.7993955315 -1.3485005402 -2.5068548883
H 3.5392161917 -1.1630697944 -2.5715357881
H 2.8334473495 -2.3061823768 -1.4478867069
H -4.7056880250 -1.4573905684 -0.7323350074
H -3.2378401144 -2.1814174037 -0.0527424020
H -5.1135504239 -3.4142852452 0.4760211891
