45
CONF8
C -4.2808626536 -3.6301575559 -1.9532488934
C -3.8952616177 -2.2285838549 -2.3020483570
C -2.9626819613 -1.5147997526 -1.6619735849
C -2.6359942321 -0.1259658582 -2.0232779085
C -1.1886129982 0.4145776480 -2.0544414221
C -2.2094937219 0.9146547702 -1.0262391749
C -2.0549231124 0.5628321423 0.4346190828
C -2.6973782821 2.3284221181 -1.2587201287
C -0.0415450296 -0.4114311705 -1.6599284988
O -0.0236945446 -1.3514321014 -0.8885624322
O 1.0862627772 0.0361584058 -2.2891140688
C 2.3155420197 -0.6400340877 -1.9212713786
C 2.7303020904 -0.2848201538 -0.5217949584
C 2.8395782554 -1.2315945733 0.4920183211
C 3.1889990063 -0.8684763386 1.7839960527
C 3.4523755771 0.4513683415 2.1346251070
C 3.3487619297 1.3939246665 1.1184209105
C 3.0041498577 1.0341034322 -0.1759497540
F 2.9249791946 1.9934630549 -1.1156878370
F 3.5884302587 2.6931821695 1.3793151945
C 3.7752336184 0.8212420824 3.5633065373
O 2.6171202166 0.7882444852 4.3948685533
C 1.6931968440 1.8357667686 4.0913588111
F 3.2763097934 -1.8298375625 2.7210355386
F 2.6116634189 -2.5287118751 0.2310453145
H -5.3455279676 -3.6933019251 -1.6966417111
H -3.6985386846 -4.0047389184 -1.1064751207
H -4.1263279315 -4.3035488519 -2.8053074072
H -4.4247547010 -1.7721903709 -3.1400861543
H -2.4249480074 -1.9664077889 -0.8335151436
H -3.2214672248 0.2576961376 -2.8568367326
H -0.9706853964 1.1085531338 -2.8589182097
H -1.6653669531 -0.4420619846 0.5930956517
H -3.0295053729 0.6406938510 0.9292444404
H -1.3746874144 1.2732130523 0.9177882350
H -2.8025443224 2.5461933646 -2.3252603567
H -1.9983600534 3.0516488388 -0.8240025504
H -3.6735215998 2.4692736803 -0.7808027115
H 2.1964671707 -1.7194327674 -2.0247407446
H 3.0484470256 -0.2760225322 -2.6433868421
H 4.2454476352 1.8124600561 3.5917918624
H 4.4695198208 0.0887310754 3.9816508599
H 2.1741550159 2.8202771372 4.1788806944
H 1.2773906122 1.7273746213 3.0795242393
H 0.8823524325 1.7594946885 4.8183137647
