48
CONF16
C -3.3675846554 2.6127912415 -0.0092457167
Si -1.9305742905 1.4657414177 0.1732933602
O -1.2250506645 1.7240027594 1.6476302272
O -2.4707470610 -0.0746853977 0.0457915351
Si -2.1040627368 -1.5424342406 0.7033707913
C -3.1506172705 -2.8095143372 -0.1747324792
C -2.3988039227 -1.5192323772 2.5400588404
O -0.5040907429 -1.8648476119 0.4682045323
Si 0.6126725548 -2.0469925947 -0.7281645889
C 1.3402980466 -3.7551297143 -0.5907601432
C -0.1467892085 -1.7246858644 -2.3994564249
O 1.8213984042 -0.9529459502 -0.4930346028
Si 2.3483939676 0.1962087542 0.5566515372
C 2.0140804513 -0.3054822284 2.3190964927
C 4.1527615080 0.4869943056 0.2077371299
O 1.5168160442 1.6045345045 0.2912169451
Si 0.7268258617 2.3094810161 -0.9844730538
C 0.6844125311 4.1403419197 -0.6526828490
C 1.5405071300 1.8783563273 -2.6007827486
O -0.8134738775 1.7146271580 -1.0104217584
H -4.0759175684 2.4780792558 0.8140877325
H -3.8976395154 2.4230446746 -0.9473529235
H -3.0359770629 3.6554335424 -0.0051908679
H -0.2640065227 1.6325635025 1.6726199926
H -3.0059042954 -2.7555781780 -1.2584768285
H -2.9015437970 -3.8237428337 0.1544795153
H -4.2138772807 -2.6409244124 0.0252075254
H -2.1022005413 -2.4680376101 2.9989115915
H -1.8248007854 -0.7134150101 3.0084710466
H -3.4569156903 -1.3485581434 2.7642570384
H 0.5790112606 -4.5234190680 -0.7623758188
H 1.7580354651 -3.9142312437 0.4090810504
H 2.1432097808 -3.9033181526 -1.3202004276
H 0.6215984763 -1.7226375451 -3.1801068167
H -0.6529237686 -0.7530782209 -2.4145598596
H -0.8792542115 -2.4963526429 -2.6586687790
H 2.3240810609 0.4769628789 3.0198664379
H 0.9467011861 -0.5016484919 2.4680572271
H 2.5559415886 -1.2217365669 2.5765562119
H 4.3000250774 0.7607301863 -0.8424959082
H 4.5497310318 1.2968923879 0.8281304701
H 4.7437039507 -0.4136889113 0.4032044982
H 0.1151209607 4.6660601047 -1.4262855592
H 1.6933135864 4.5646249592 -0.6245943949
H 0.2084746402 4.3424457688 0.3132750469
H 0.9675883768 2.2840233289 -3.4411393570
H 2.5541562248 2.2893948701 -2.6546570969
H 1.6038966204 0.7929826843 -2.7249577491
