45
CONF3
C -1.3787198715 -1.5933573252 3.2149958644
C -1.3060195608 -1.8613879539 1.7210595686
C -2.5832301665 -1.4662793337 0.9978748754
C -2.6975112997 -1.9222279154 -0.4622672154
C -1.9118397251 -1.0895436125 -1.4696447225
C -2.4508069659 0.3057923777 -1.6881490977
O -3.4493439253 0.7203722977 -1.1253492140
C -1.6979452184 1.1639419093 -2.6878853069
C -1.6611843363 2.6474316151 -2.3150178237
C -1.0238046938 2.9026494212 -0.9361363934
C 0.2969787255 2.2205453642 -0.7851398962
C 0.6123809472 1.3929274360 0.2197823292
C 1.9225700299 0.7343641833 0.3517818229
C 2.1026157145 -0.5856964699 0.8743309441
C 3.4356482012 -1.0978537217 0.9571158386
C 4.5287137610 -0.3478712045 0.5265044993
C 4.3214796437 0.9271750801 0.0271939306
C 3.0366137505 1.4669246842 -0.0469096952
O 5.3425979205 1.7203767405 -0.3916880917
O 3.7099532612 -2.3165705884 1.4411547237
C 1.0350452516 -1.4816961038 1.3236220921
O 1.2565325708 -2.5957623213 1.8240586965
O -0.2181187600 -1.0418399572 1.1559745084
H -2.1570687080 -2.2185056419 3.6622162234
H -1.6289907217 -0.5436390105 3.3987869209
H -0.4297614566 -1.8268560413 3.7026523129
H -1.0613403007 -2.9109790931 1.5289412212
H -3.4017493895 -1.9240021575 1.5660966050
H -2.7234220747 -0.3825065482 1.0756488791
H -2.3774158068 -2.9689795159 -0.5364679605
H -3.7544987907 -1.8946300662 -0.7482795413
H -1.9042828270 -1.5767664464 -2.4566351439
H -0.8552174497 -0.9925317677 -1.1918555873
H -0.6863053806 0.7664217271 -2.8235385565
H -2.2149967739 1.0357875213 -3.6499351211
H -2.6761863349 3.0559566160 -2.3179579831
H -1.0928880218 3.1816371485 -3.0855643597
H -0.8935348624 3.9875087155 -0.8169524765
H -1.7034587422 2.5743519116 -0.1423164148
H 1.0186391959 2.3885901430 -1.5863519575
H -0.1353121181 1.1868858016 0.9767826871
H 5.5213615580 -0.7790097765 0.6096464733
H 2.9235677164 2.4890517763 -0.3862621292
H 6.1808472886 1.2542991074 -0.2777958498
H 2.8294092539 -2.7044990417 1.7127405264
