43
CONF24
C 2.3719735080 2.9807348202 -0.4380396601
C 0.9117338284 2.7288501641 -0.2789132877
N 0.0485104754 3.6272780685 -0.7353666328
N -1.1950553371 3.1352739879 -0.4534116439
C -1.1330991893 1.9711845365 0.2108716962
C 0.2300914601 1.6413017527 0.3574138095
C 0.7668299314 0.5568522674 1.1414400338
O 0.1090798193 -0.0600163832 1.9861016189
C 2.2132972040 0.1890572339 0.9715305808
C 2.7382553179 -0.3399268418 -0.2066363825
C 4.0725975999 -0.7127776256 -0.3166076858
C 4.8916630501 -0.5314524618 0.7907536472
C 4.4090655387 -0.0214288202 1.9907549267
C 3.0662053549 0.3194517016 2.0705586088
Cl 6.5827880627 -0.9776573389 0.6657105577
Cl 1.6989460222 -0.6041271377 -1.5981247635
O -2.2713758073 1.3793988648 0.5862434292
C -2.3693507344 -0.0330522011 0.3377618026
C -3.8378373849 -0.4096102175 0.2899518399
O -4.7089982263 0.4255311357 0.4737770660
C -4.1551096857 -1.8362180928 0.0184524891
C -3.1584268402 -2.8067130016 -0.1563001474
C -3.5086208125 -4.1283309262 -0.4084887670
C -4.8510183302 -4.4921777250 -0.4899985670
C -5.8481420366 -3.5314799448 -0.3179539473
C -5.5029638051 -2.2119807839 -0.0644136460
C -2.3847949763 3.8783569466 -0.8316205218
H 2.9001094722 2.8920868370 0.5154836470
H 2.8267421299 2.2668752315 -1.1321113392
H 2.5203105431 3.9882513394 -0.8323931249
H 4.4581799304 -1.1356888547 -1.2362288148
H 5.0652512032 0.1028957502 2.8439402333
H 2.6657311271 0.7144480666 2.9988396298
H -1.8643088060 -0.5872371391 1.1377429025
H -2.1070939866 -2.5465490547 -0.0949542222
H -2.7328186088 -4.8752782153 -0.5411922820
H -5.1210200401 -5.5248421054 -0.6875924701
H -6.8936034198 -3.8155133431 -0.3821653718
H -6.2684578157 -1.4556987274 0.0714706985
H -2.2691754353 4.2321372542 -1.8579664892
H -3.2461778384 3.2129721547 -0.7627099857
H -2.5272739613 4.7324575482 -0.1624837736
H -1.8835355748 -0.2797757713 -0.6151217799
