23
CONF3
C -2.3165191156 1.6299487742 -0.0753363338
N -1.3762480084 0.5232062524 0.0881340760
C -0.9561037553 -0.2334937268 -0.9511311108
N -1.5345529932 0.0673435375 -2.1277637867
N -1.2442481534 -0.6741029797 -3.2330547486
O -1.8860347469 -0.3868328728 -4.2381915779
O -0.3690538204 -1.5739078948 -3.2416804366
N -0.0480416178 -1.2011487649 -0.7085531126
C 0.4176641807 -1.5784231417 0.6112592281
C 1.4067489402 -0.5926080849 1.1765206089
C 2.0836133584 0.4069388476 0.5382727414
N 2.9466481744 1.1542211766 1.3074813688
C 2.9348684474 0.7328450188 2.5264364424
S 1.8647077071 -0.6142536419 2.8622835329
Cl 3.8858873392 1.4107435590 3.7944689533
H -3.2424011897 1.2737088964 -0.5303797642
H -1.9045076789 2.4254562136 -0.7054877205
H -2.5340244617 2.0286902684 0.9171402858
H -0.7868412702 0.5482423338 0.9056823665
H 0.2297494268 -1.7229390800 -1.5344272320
H 0.8864033506 -2.5642907686 0.5198303409
H -0.4338236205 -1.6990316153 1.2962970346
H 1.9761092109 0.6396882009 -0.5148775807
