59
CONF71
C 6.0390233368 -3.1792487740 1.1934736979
C 6.2405584738 -3.5325415140 -0.2825339414
C 6.0889840175 -2.1702062718 -0.9659765875
C 4.9544626287 -1.4467003438 -0.1914101450
C 4.8341977078 -2.2286770261 1.1573484002
C 3.6397649516 -1.4807450930 -0.9694431900
C 2.5172223651 -0.7663775957 -0.2645661937
O 1.3470427708 -1.0974981970 -0.3927145055
N 2.8629007560 0.3264888679 0.5381638914
C 4.1671982882 0.8099113634 0.6799883269
O 4.3802481915 1.8361736605 1.3105736090
C 5.2812859159 0.0263225180 0.0336312483
C 1.7746144849 1.0734398534 1.1969279227
C 1.2316704182 2.1820100886 0.2989094075
C 0.1593205612 3.0244915326 0.9933169276
C -1.0245184413 2.2146585954 1.5299719433
N -1.5679388219 1.2639120329 0.5556229205
C -2.1862656468 1.9412541449 -0.5878303947
C -2.6956654096 0.9184959626 -1.5998024435
N -3.6437033803 0.0070067465 -0.9614325056
C -3.0537262749 -0.6633268240 0.1962597564
C -2.5416642529 0.3723178833 1.1930831698
C -4.9936994594 0.1395616929 -1.1138535540
N -5.4353571206 0.9663033429 -2.0942432434
C -6.7542846307 1.0397263580 -2.2574335888
C -7.6603637124 0.3264619099 -1.4807437471
C -7.1030739611 -0.4856034464 -0.4994538690
N -5.7918221664 -0.5926502613 -0.2973277633
H 6.9260265190 -2.6515779190 1.5664090861
H 5.8717437823 -4.0489092922 1.8359293863
H 7.2038115586 -4.0076346003 -0.4914999450
H 5.4481570803 -4.2164094406 -0.6127776840
H 5.8753591626 -2.2353569666 -2.0375696344
H 7.0219854351 -1.6051867232 -0.8484072796
H 3.9066311554 -2.8138073678 1.1617833679
H 4.7986399263 -1.5583683152 2.0226066152
H 3.7691815605 -0.9862610387 -1.9433870274
H 3.3024676981 -2.5027566624 -1.1627925896
H 6.1653504374 0.1535651016 0.6661359898
H 5.5012374155 0.5148829222 -0.9270711596
H 2.1762157578 1.4880470176 2.1245100272
H 0.9912931742 0.3523212536 1.4347752683
H 2.0594657766 2.8334323066 -0.0037758538
H 0.8209514671 1.7273742580 -0.6096207957
H -0.1895920793 3.7970082838 0.2990160928
H 0.6030260488 3.5580545082 1.8434999361
H -1.8058522310 2.9129120738 1.8905301363
H -0.6997972158 1.6327564750 2.4015584875
H -3.0289144991 2.5883870593 -0.2675679179
H -1.4444492358 2.5782447683 -1.0809579069
H -1.8499095880 0.3236540302 -1.9697605468
H -3.1716997743 1.4187914723 -2.4416281731
H -3.7924629641 -1.3117657726 0.6646980603
H -2.2130716322 -1.2753521678 -0.1566157496
H -3.4054922182 0.9375493438 1.5994792275
H -2.0536714193 -0.1439129324 2.0285501402
H -7.1025641971 1.7045082262 -3.0476271111
H -8.7303066077 0.4023583628 -1.6272237407
H -7.7387604879 -1.0769816282 0.1592287655
