48
CONF126
C -4.9427013916 2.1075798131 3.5697565937
O -3.8917753099 1.7801463870 2.6394964514
N -3.8211387499 0.4126846687 2.5034529982
C -2.9203365146 0.0042218688 1.6755007595
C -2.9097965480 -1.4477158037 1.4031635703
C -4.1112852595 -2.1558498599 1.2589046356
C -4.1072085993 -3.5238669213 1.0242054742
C -2.8997943442 -4.2148405163 0.9296094310
C -1.6953463478 -3.5353653635 1.0737807825
C -1.7180379825 -2.1684274112 1.3002361370
O -0.5292903306 -1.4837808224 1.5781901342
C 0.3815673522 -1.3120328996 0.5972675412
C 1.5322263785 -0.6056472290 0.9300212279
C 2.4683182867 -0.4094499753 -0.0773249491
N 2.2805196466 -0.8739646270 -1.3082346471
C 1.1405209022 -1.5317247840 -1.5225392305
N 0.1777280959 -1.7740914430 -0.6327634664
O 3.5946902664 0.2639841876 0.2501609940
C 4.4823997583 0.5785186364 -0.7775677469
C 5.6552419978 -0.1512007417 -0.8930621783
C 6.5914423337 0.2040444486 -1.8590812975
C 6.3477486990 1.2853351344 -2.7016782674
C 5.1716800964 2.0206302394 -2.5833009478
C 4.2405759456 1.6651938523 -1.6149186580
Cl 2.7610992727 2.5801511277 -1.4399794742
F 1.7279295022 -0.1300206411 2.1670150645
C -2.0006019279 0.8961737701 0.9169046378
N -1.2096082748 1.6761895925 1.5630778487
O -0.4005522856 2.5366612981 0.7877408972
C -0.9631808506 2.8187157043 -0.5055634251
C -1.2202330931 1.5222504110 -1.2256344525
O -2.1295638389 0.7257904485 -0.4191694570
H -5.9065099545 1.7385179811 3.2056096171
H -4.7230914225 1.6893826293 4.5567509064
H -4.9488401412 3.1975702688 3.6162479090
H -5.0457627575 -1.6093255728 1.3208752220
H -5.0473644853 -4.0525922850 0.9082939003
H -2.8929089249 -5.2843557032 0.7475914893
H -0.7447281129 -4.0545984536 1.0239146920
H 0.9780505296 -1.9084916974 -2.5304686968
H 5.8172869115 -0.9895759207 -0.2239409278
H 7.5094110526 -0.3660349507 -1.9515309746
H 7.0745734794 1.5660795791 -3.4563089159
H 4.9755159969 2.8669000894 -3.2319467571
H -0.2250388244 3.4289623605 -1.0302460021
H -1.8955535158 3.3858781666 -0.3799607257
H -1.7170030677 1.6705964189 -2.1863707597
H -0.2912727436 0.9607937359 -1.3674509581
