26
CONF2
Cl -1.3054946810 -2.7333367972 -1.9860637827
C 0.0975042045 -1.8255714458 -1.4953580385
Cl 1.5798957855 -2.4947738647 -2.1185597828
C 0.0426165154 -0.7285203427 -0.7204245434
C 1.2660149492 -0.0655501414 -0.2078867897
C 1.4381439383 1.3078117679 -0.4146218570
C 2.5560054804 1.9689784896 0.0788975593
C 3.4944626056 1.2443619841 0.8047081580
Cl 4.9081965443 2.0724540498 1.4429126799
C 3.3391150220 -0.1151779020 1.0481330121
C 2.2219415186 -0.7643246269 0.5361364750
C -1.2445299060 -0.1077550308 -0.3246821333
C -2.1876914794 0.2955857223 -1.2751157840
C -3.3674721394 0.9192083386 -0.8865534454
C -3.5984299602 1.1326688800 0.4672446347
Cl -5.0911361829 1.9154076558 0.9682242815
C -2.6753708358 0.7533545256 1.4350924848
C -1.4949745124 0.1433742174 1.0290466708
H 0.6933060931 1.8656787162 -0.9736080118
H 2.6920649459 3.0301360891 -0.0954370816
H 4.0730497054 -0.6585328716 1.6322292855
H 2.0870232163 -1.8224457383 0.7331379857
H -1.9942481641 0.1376318525 -2.3306853071
H -4.0916093491 1.2393973278 -1.6268780470
H -2.8712296556 0.9335001483 2.4858805583
H -0.7619372695 -0.1476082963 1.7749638047
