40
CONF23
C 2.6329968406 2.6862838287 1.0106912929
N 2.3259768146 2.5484846965 -0.4140689542
C 3.1240938117 3.5025178814 -1.1855363671
C 2.5920002320 1.1853944771 -0.8911958035
C 1.6929281972 0.1257981252 -0.2597349565
C 0.2144372536 0.4780065951 -0.4176844850
N -0.6540770200 -0.5917327202 0.0863600472
C -0.6049642005 -1.8606697919 -0.5327546570
C -0.1076836266 -2.0407535797 -1.8286662874
C -0.0466603303 -3.3132486447 -2.3906312728
C -0.5093747121 -4.4221404877 -1.6887642164
C -1.0436423051 -4.2520629584 -0.4138964608
C -1.0721819891 -2.9865237173 0.1634303262
S -1.6576613294 -2.7673729115 1.8311855734
C -2.4531907683 -1.1938930609 1.6011078702
C -1.8401205775 -0.2500771720 0.7572564174
C -2.4422612423 1.0061982880 0.6100945195
C -3.5853438596 1.3005178337 1.3425560403
C -4.1901411798 0.3825520503 2.1885490384
C -3.6196623613 -0.8840467636 2.2901237834
Cl -4.3037563373 2.8995997985 1.1627169296
H 3.6831067637 2.4212231138 1.2429097925
H 1.9779393246 2.0491101867 1.6124402591
H 2.4660035460 3.7234450678 1.3184346905
H 4.2126836260 3.3341842414 -1.0700604401
H 2.8769690133 3.4192319016 -2.2491733413
H 2.9005153049 4.5230689266 -0.8577252281
H 3.6512926227 0.9038201036 -0.7220654765
H 2.4290121216 1.1813211613 -1.9772784593
H 1.9204875398 -0.8297197075 -0.7426148569
H 1.9153277939 -0.0039630880 0.8052671537
H -0.0151507334 0.7411776879 -1.4621571229
H 0.0127219859 1.3668621744 0.1813804527
H 0.2411263790 -1.1890778738 -2.4005651532
H 0.3582622865 -3.4303860802 -3.3906976120
H -0.4655683827 -5.4125398770 -2.1291185786
H -1.4225572517 -5.1025993566 0.1442482713
H -2.0342675724 1.7441401461 -0.0682200073
H -5.0829678307 0.6366038208 2.7466224970
H -4.0766483238 -1.6287341515 2.9339398913
