52
CONF5
C -4.6499837973 -0.3514923064 -1.0412491626
C -3.6892591501 0.1709241767 0.0281603582
C -4.4191830258 1.0754319547 1.0206103107
C -2.5179639131 0.9450862599 -0.6259746410
C -1.4802598237 1.4441656545 0.3626649122
C -0.8955177007 0.5997890224 1.3106978833
C 0.0358776689 1.0804159885 2.2229515014
C 0.3889348240 2.4241888782 2.1799149788
C -0.1613529913 3.2846797460 1.2404063194
C -1.0930962403 2.7842363200 0.3371462615
Cl 1.5423559411 3.0533499032 3.3444813524
C -1.8435918347 0.1332983732 -1.7159315600
O -1.7263949482 0.4578459331 -2.8703636891
O -1.3700306026 -1.0474477832 -1.2180291708
C -0.6052083765 -1.8338777443 -2.1672990174
C -0.5775064341 -3.1891532894 -1.6186077533
N -0.5165557877 -4.2651642417 -1.2038795027
C 0.7955636144 -1.2897637458 -2.3474896238
C 1.5525817692 -0.9939429624 -1.2159048908
C 2.8500600850 -0.5196798875 -1.3792827094
C 3.3835976525 -0.3355560049 -2.6555786387
C 2.6096021648 -0.6236572002 -3.7699077739
C 1.3108802463 -1.1045501347 -3.6252923649
O 3.6586566684 -0.1548264272 -0.3315497009
C 3.4390696405 -0.6800420131 0.9322593421
C 3.4919475214 0.2095540648 1.9975444024
C 3.3590382913 -0.2762249204 3.2946418465
C 3.1630090917 -1.6353974170 3.5208540415
C 3.1150638729 -2.5147841062 2.4410259909
C 3.2611640205 -2.0456577602 1.1402195451
H -5.4861080521 -0.8828646015 -0.5774585799
H -4.1581091791 -1.0446906183 -1.7312844275
H -5.0616322848 0.4761706020 -1.6302800762
H -3.2719153349 -0.6870949006 0.5684239561
H -4.8527236013 1.9406049082 0.5050735455
H -3.7484246722 1.4467249653 1.8004592842
H -5.2357459065 0.5305540791 1.5036662966
H -2.9361895346 1.8115397398 -1.1496363341
H -1.1670159683 -0.4495703505 1.3462535136
H 0.4876241365 0.4194024519 2.9534764134
H 0.1278467811 4.3288191960 1.2187117123
H -1.5297652174 3.4545567027 -0.3972296660
H -1.1261814178 -1.8431865919 -3.1317443745
H 1.1324042515 -1.1248095551 -0.2253161551
H 4.3965092137 0.0394358733 -2.7502311561
H 3.0217525960 -0.4701473247 -4.7616030145
H 0.7009798716 -1.3189679962 -4.4962849153
H 3.6324447345 1.2664768332 1.8010495633
H 3.3979482386 0.4178999247 4.1277647303
H 3.0547753756 -2.0102662077 4.5329714367
H 2.9732528223 -3.5774470702 2.6089491204
H 3.2367748650 -2.7276259001 0.2970298934
