54
CONF387
C -3.2584528509 -2.1418071546 -1.7964118766
C -2.8761110655 -2.8120713112 -0.4739589004
C -4.1111754191 -3.1595848541 0.3587454542
C -1.8677841222 -1.9804694845 0.3510259237
C -0.5581766269 -1.8318971823 -0.4370942329
O 0.1616306750 -2.8133993252 -0.6242828592
N -0.2866107977 -0.6041217787 -0.9280547611
C 0.9111833705 -0.3134927642 -1.6987110149
C 0.5849536885 0.8172042589 -2.6889529320
C -0.5133012038 0.3790778034 -3.6292734378
O -0.4725888181 -0.6304630722 -4.3027039045
O -1.5492823842 1.2350499385 -3.6248342870
C -2.6504852731 0.8886166175 -4.5050274704
C 2.1089192129 0.0468189907 -0.8371131421
C 3.3874595685 -0.0211412957 -1.3958943288
C 4.5124242880 0.3275933311 -0.6579442267
C 4.3430460968 0.7465143989 0.6570357475
C 3.0866035326 0.8176623347 1.2420992960
C 1.9714048799 0.4654103421 0.4851833757
Cl 5.7607179972 1.1878942388 1.6054306840
N -2.4420214457 -0.7163182790 0.7785071768
C -1.9509973392 -0.0509958342 1.8586017361
O -0.9603591793 -0.3985094824 2.4882510294
O -2.6921976045 1.0517440799 2.1172251601
C -2.2929221650 1.8546367150 3.2798772277
C -2.8144401761 3.2509804928 3.0090519765
C -2.8717684550 1.2350430582 4.5383320210
H -3.9174359393 -2.8026813165 -2.3676476874
H -3.8014505154 -1.2024835674 -1.6385285392
H -2.3792956822 -1.9286347142 -2.4128185738
H -2.3435613732 -3.7417840626 -0.7048600096
H -4.7093700571 -2.2695582294 0.5818486179
H -4.7488153037 -3.8567565562 -0.1932876692
H -1.5995007645 -2.5607378043 1.2422126131
H -0.9059697902 0.1558604698 -0.6818608850
H 1.1559770048 -1.2152555777 -2.2707750748
H 0.3022487578 1.7273088079 -2.1522539838
H 1.4745936807 1.0337526442 -3.2887476756
H -3.3914542766 1.6737062404 -4.3616081635
H -3.0591170001 -0.0854099687 -4.2262832518
H -2.3076306513 0.8646508488 -5.5419193396
H 3.5125950929 -0.3576973676 -2.4218127899
H 5.5026201829 0.2677820322 -1.0951622601
H 2.9743554788 1.1383916250 2.2716716335
H 0.9907969095 0.5060635132 0.9486301914
H -1.1992522927 1.8528478060 3.3201066226
H -3.9056644557 3.2440649631 2.9231229649
H -2.3879936005 3.6559294089 2.0873191670
H -2.5376276240 3.9080468627 3.8383773641
H -2.5795491252 1.8316773474 5.4079169849
H -2.5024913102 0.2161025754 4.6798071298
H -3.9650295837 1.2160990928 4.4824362129
H -3.8297658262 -3.6284275797 1.3071779057
H -3.2895162406 -0.3734072520 0.3525134785
