65
CONF390
C 4.7965963732 -8.0584248033 3.0704570407
O 3.4397156399 -7.6396693246 2.9809119002
C 3.1944773337 -6.2958115326 3.0010902328
C 4.1777317267 -5.3111253847 3.1020852443
C 3.8019891092 -3.9683872034 3.1162414318
C 2.4679453154 -3.5777478527 3.0352923886
C 1.5000319840 -4.5839211921 2.9339815289
C 1.8494201888 -5.9240381404 2.9172650881
C 2.0812754855 -2.1233064922 2.9920139220
C 1.9850898576 -1.6304512754 1.5415961224
N 1.7610958521 -0.1895339632 1.4270071309
C 0.4017861145 0.1875840748 1.8367012679
C 0.2121397824 1.6992129328 1.7926474655
C 0.5107044769 2.2627967985 0.4004580000
C 1.8820452628 1.7702094458 -0.0592345465
C 2.0136092378 0.2538357514 0.0550518833
N -0.5060902765 1.8137811302 -0.5639976664
C -1.6937417012 2.4858839471 -0.6399615581
N -2.1063939361 3.4319241046 0.1761901778
C -3.3715250915 3.7635712390 -0.2848479885
C -4.2728057407 4.7112663788 0.1914543862
C -5.4857947977 4.8615587215 -0.4769201111
C -5.8027414352 4.0878388279 -1.5988456822
C -4.9139010346 3.1321876401 -2.0935802183
C -3.7117209361 2.9869077340 -1.4186040240
N -2.6159278757 2.1575160931 -1.6249809347
C -2.4561978844 1.1170266743 -2.6198271536
C -1.3072111463 1.3853339339 -3.5701325447
C -0.4218223211 0.3645073028 -3.9166592689
C 0.6429468831 0.6032512828 -4.7819117974
C 0.8043199558 1.8826852624 -5.2846118457
C -0.0512812922 2.9237379084 -4.9564763420
C -1.1087304837 2.6652970046 -4.0936535260
F 1.8373926391 2.1293328225 -6.1178950729
H 5.2551541790 -7.7302020773 4.0127031966
H 5.3883522116 -7.6814682844 2.2256207873
H 4.7759191776 -9.1486686380 3.0391335296
H 5.2269985321 -5.5689367520 3.1758478669
H 4.5752662349 -3.2086073262 3.1975898239
H 0.4499612019 -4.3090717097 2.8734002700
H 1.0974743295 -6.7026047898 2.8458957741
H 1.1247569390 -1.9883925453 3.5076875163
H 2.8239214617 -1.5118132336 3.5159554642
H 1.2028946329 -2.2128965295 1.0105066761
H 2.9363258655 -1.8636005392 1.0460131614
H 0.2287940390 -0.1618531936 2.8589342244
H -0.3558651128 -0.3012275762 1.1895195890
H -0.8099248095 1.9616779262 2.0816470385
H 0.8945151776 2.1714920980 2.5091806188
H 0.4997528453 3.3598983942 0.4451046119
H 2.0780695753 2.0887522071 -1.0916076899
H 2.6412164578 2.2367618315 0.5776246729
H 1.3269593649 -0.2460240686 -0.6638116287
H 3.0312701786 -0.0435114251 -0.2249853338
H -0.1450905395 1.4974370966 -1.4541655984
H -6.2020526496 5.5952015236 -0.1216628099
H -6.7562669466 4.2307572605 -2.0959680899
H -5.1676246778 2.5385371589 -2.9663678017
H -2.3034960696 0.1495807353 -2.1219021605
H -3.3983583223 1.0464781367 -3.1743210733
H 1.3411915399 -0.1785795326 -5.0579667450
H 0.1186110490 3.9113387891 -5.3700020848
H -1.7811845963 3.4697716909 -3.8097879502
H -0.5593846532 -0.6314120021 -3.5039816785
H -4.0252107781 5.3128624563 1.0594234948
