76
CONF1307
C 2.7538728762 -2.2596939511 -1.8240876664
C 3.0843126981 -0.9029047082 -1.1918473987
C 4.3339939347 -1.0181945742 -0.2948172016
C 4.1381702158 -1.9104334220 0.9463626694
C 5.3968307866 -2.0040087184 1.7491149959
O 6.4105166578 -2.7502925107 1.2430599968
N 5.5441728103 -1.3835817138 2.8534948623
C 6.8114159222 -1.4949579700 3.5574473101
C 6.7456202801 -0.6968254597 4.8484428075
O 5.5832489340 -0.0681254074 5.0612476854
O 7.6660669076 -0.6224176767 5.6369160865
C 1.9043802313 -0.2767527829 -0.4318289181
C 2.2747012318 1.0899610662 0.2142559766
C 0.9728907212 1.9297294183 0.2702767215
C -0.1141211964 0.9454211785 -0.1640478948
C -1.4574957286 1.5010523625 -0.6245956547
C -2.0730476319 2.4431370445 0.4128147236
O -2.0547075238 1.7758198890 1.6934566412
C -3.4803744288 2.8845683525 0.0088270065
C -4.4200077780 1.7384385624 -0.3925334190
C -4.9016602033 0.9348103640 0.8294560604
C -5.8547608458 -0.1903290313 0.4514184444
O -6.3105087406 -0.9051211305 1.6182368797
C -5.2001430510 -1.1170267756 -0.5636816182
C -4.7685299566 -0.3156742356 -1.7910769545
C -3.7887640345 0.8407750420 -1.4927492759
C -3.6568188696 1.6425926023 -2.8011506174
C -2.4034198214 0.3323837805 -0.9904446755
C -1.7273483629 -0.6409074061 -1.9700768242
C -0.3460544574 -1.1411645537 -1.5206402408
O -0.4694467495 -2.0722455529 -0.4269051765
C 0.5917562387 0.0432284326 -1.2043619745
C 0.9128245385 0.7877002160 -2.5094009778
H 2.2612164179 -2.9274468995 -1.1096714485
H 3.6681881607 -2.7519355538 -2.1749424170
H 2.0908090897 -2.1486318898 -2.6850507181
H 3.3702313520 -0.2127282073 -1.9987230412
H 5.1535004586 -1.4185086802 -0.9048326442
H 4.6473009083 -0.0240221067 0.0416157408
H 3.8322536610 -2.9202795122 0.6452603018
H 3.3619143719 -1.4997156356 1.5948985524
H 6.1353568847 -3.1789635323 0.4190245312
H 7.6595092500 -1.1067273406 2.9750443826
H 7.0651216253 -2.5312142857 3.8230481058
H 5.0212627547 -0.2962108474 4.2779158712
H 1.6125367424 -0.9718432916 0.3656433515
H 2.7078812100 0.9475265324 1.2094372812
H 3.0355121798 1.5962280953 -0.3908633669
H 1.0223553803 2.7756907342 -0.4256552436
H 0.7814662995 2.3406179441 1.2655633039
H -0.3150751240 0.3059233222 0.7090166934
H -1.2897959587 2.1178906029 -1.5167394860
H -1.4357717350 3.3399142381 0.4803554844
H -2.5414337199 2.3328413977 2.3135437469
H -3.3752348410 3.5813348112 -0.8318695419
H -3.9275245372 3.4619176913 0.8300037657
H -5.3168391281 2.1946491799 -0.8403536780
H -4.0481556691 0.5014193917 1.3623664029
H -5.4003714669 1.6172706640 1.5297805206
H -6.7684182376 0.2324003716 0.0106750405
H -5.5287208736 -1.2841752790 2.0419573773
H -4.3370330067 -1.6104954132 -0.0938095054
H -5.9049479306 -1.9045406387 -0.8554798268
H -5.6672735325 0.1288408161 -2.2427968806
H -4.3466487246 -0.9794697370 -2.5528722275
H -4.6252776852 2.0874999836 -3.0561309475
H -2.9252130414 2.4512336073 -2.7408371512
H -3.3662901126 0.9912146506 -3.6315254197
H -2.5865252843 -0.2178145016 -0.0566399062
H -2.3563691799 -1.5257018113 -2.1123518484
H -1.6228589316 -0.1685722329 -2.9524590334
H 0.0748003241 -1.7416237222 -2.3327501459
H -0.9215642709 -1.6276432888 0.3010867099
H 1.3458809230 0.0996044160 -3.2435392202
H 0.0261250406 1.2345440530 -2.9644463813
H 1.6365525371 1.5907410681 -2.3428631530
