41
CONF46
C -2.6535715045 -1.7991756586 1.6381827205
C -3.2061876236 -0.3704994539 1.6758008295
C -4.5932481412 -0.3074535681 1.0430665710
N -2.3358053399 0.6135394435 1.0017423253
C -0.9893073033 0.7248281590 1.5733818691
C -0.3623028516 2.0535063762 1.1555545316
O -1.2071232224 3.1481625795 1.5272518129
C -0.1252890159 2.1464478139 -0.3572609971
O 0.5470840452 0.9918607174 -0.8863109694
C 1.8686006137 0.7894867355 -0.5909449292
C 2.7193201158 1.7719475135 -0.0801771079
C 4.0607489068 1.4709311525 0.1509330632
C 4.5570870790 0.2005412297 -0.1202287784
C 3.6966210128 -0.7731813027 -0.6256253615
C 2.3509128754 -0.5041673982 -0.8636932913
C 1.4314481348 -1.5649637072 -1.4237833023
C 1.1897865709 -1.3742123560 -2.8962712104
C 1.4964046602 -2.2722140707 -3.8306430129
H -3.3329467157 -2.4881748348 2.1510690815
H -2.5472846735 -2.1346695749 0.5990383990
H -1.6756195423 -1.8673695149 2.1240812484
H -3.2820261593 -0.0500842937 2.7248462387
H -4.5434215800 -0.5985506549 -0.0132681158
H -5.0050253089 0.7044805560 1.1027195514
H -5.2782508639 -0.9942941971 1.5490896431
H -2.2620928566 0.3432952133 0.0231773503
H -1.0806725581 0.7252753875 2.6666483941
H -0.3109051531 -0.0987846836 1.2994085910
H 0.5819343351 2.1822667012 1.6956243702
H -2.1070706101 2.8301123650 1.3361802699
H 0.4092920783 3.0699830698 -0.6076639036
H -1.0892777072 2.1650945743 -0.8740924510
H 2.3538729799 2.7684532034 0.1380602402
H 4.7143230879 2.2419817645 0.5473226622
H 5.6002497708 -0.0343884393 0.0641126919
H 4.0710895531 -1.7718895723 -0.8356870179
H 1.8708829194 -2.5521304293 -1.2502885283
H 0.4710996417 -1.5238021140 -0.8927529806
H 0.7450466713 -0.4227958291 -3.1858619717
H 1.9452296609 -3.2283874272 -3.5700944409
H 1.3063945155 -2.0803650783 -4.8826440901
