35
CONF54
C -0.5238262657 -0.8643844993 2.9798057671
C -1.2125308024 -1.3261986708 1.7310620260
C -2.1085919446 -2.3552295857 1.6761505685
S -2.7282116613 -2.5964735154 0.0730053668
C -1.7804868765 -1.2910282019 -0.5657837231
C -1.0282791514 -0.7250199845 0.4384789878
N -0.1549638422 0.3775592805 0.2211187898
C 1.2670142336 0.1700586252 -0.1608082433
C 1.7890224550 -1.1909566525 0.2679883633
C 1.4267339822 0.3724457461 -1.6782625323
O 2.7927545586 0.4719265888 -2.0588548342
C 3.3255647887 1.7830509323 -1.8753775624
C -0.5887994065 1.6707024734 0.3656476346
O 0.1399113479 2.6366571842 0.1976405829
C -2.0692829289 1.7857497238 0.7453159325
Cl -2.5396949474 3.4921594477 1.0692938347
C -1.8631777517 -0.9061149523 -2.0039204011
H -1.2030295612 -0.8994091171 3.8355609678
H -0.1584879769 0.1608056366 2.8695322696
H 0.3389943612 -1.4961549065 3.2165811245
H -2.4499008850 -2.9841423728 2.4876223067
H 1.8300986058 0.9575769202 0.3507727380
H 2.8215045388 -1.2826111912 -0.0790856854
H 1.7805200370 -1.3064635196 1.3541926229
H 1.2054524729 -2.0034435793 -0.1769544654
H 1.0237912576 -0.5010492366 -2.2046259860
H 0.8703656844 1.2671052868 -1.9945181265
H 3.3083196341 2.0959557804 -0.8229009592
H 2.7652964313 2.5195243617 -2.4691013115
H 4.3616275807 1.7527146386 -2.2199647246
H -2.2936372996 1.2021442429 1.6412020344
H -2.6980028987 1.4155116175 -0.0687942410
H -1.4666470478 0.1032893024 -2.1423213828
H -1.2825158928 -1.5851194403 -2.6386112732
H -2.8969048293 -0.9211380668 -2.3610859631
