37
CONF399
C -3.2525581245 0.1733645223 -2.5523931174
C -2.2927534626 -0.9707408019 -2.3178923154
O -1.0449479175 -0.4813746692 -1.7237119483
P -0.9266936544 -0.4885240161 -0.1360101555
O -2.0074616891 0.1514083068 0.6492856583
O -0.6330046181 -2.0147945888 0.2083320182
C -1.0587833315 -2.5913494383 1.4934568078
C -0.0854221100 -3.6904975498 1.8377820546
O 0.5034795325 0.2759315482 -0.0625062826
P 1.4117668741 0.5190806411 1.2782622065
O 1.0274281288 -0.3463438062 2.4108722835
O 2.8878811484 0.3002051926 0.7619529631
C 3.3778195127 0.9415358518 -0.4654791593
C 3.5324126239 -0.1003381538 -1.5478293892
O 1.3330674307 2.0944512120 1.4846904702
C 0.0393001750 2.7037575550 1.8346403765
C -0.4612815831 3.5222795149 0.6684514918
H -3.5462201919 0.6325709042 -1.6052899821
H -4.1503130822 -0.2046197104 -3.0522846713
H -2.7945933479 0.9336329824 -3.1910706885
H -2.7284998746 -1.7411143048 -1.6709130350
H -1.9846755936 -1.4423173613 -3.2540287678
H -2.0764892130 -2.9690500348 1.3531787184
H -1.0625475135 -1.8081036162 2.2539450280
H 0.9179767253 -3.2786957065 1.9721663339
H -0.3955666914 -4.1636544031 2.7747103292
H -0.0608702704 -4.4537800624 1.0550132969
H 4.3353664619 1.3902441194 -0.1897158028
H 2.6909754250 1.7404008567 -0.7622529258
H 4.2102703571 -0.8946786589 -1.2246542394
H 2.5654843582 -0.5405187751 -1.8054189661
H 3.9502660551 0.3699415806 -2.4438110575
H -0.6738906349 1.9202780800 2.1115942804
H 0.2422872073 3.3216464159 2.7126537323
H -0.6529660139 2.8860865414 -0.1997453855
H -1.4001798983 4.0099737138 0.9491433145
H 0.2639375890 4.2937058009 0.3948769277
