51
CONF18
C 3.0616682140 1.5175181957 -1.8140960760
C 3.1523532759 0.3934303447 -0.7857317806
C 2.3378681779 -0.8910601419 -1.1174285255
C 2.6892967986 -1.4305247146 -2.5074291577
C 2.6352571564 -1.9583752045 -0.0529163474
C 0.8787551731 -0.4949332413 -1.1047577170
O 0.1835602759 -0.2099971349 -2.0415855924
O 0.3814398892 -0.4649093118 0.2078157511
C -0.8563274322 0.0408406499 0.4299263571
C -1.3020090994 1.2882732497 0.2204128640
C -2.6902049518 1.3206742148 0.7046694645
O -3.4667325649 2.2502658679 0.7493279861
O -3.0310325565 0.0799776273 1.1654072158
C -1.9038379166 -0.8403871578 1.0296456225
C -1.5144321877 -1.3545813134 2.4195780218
C -2.5981618099 -2.2573187004 3.0108653441
C -2.9340915115 -3.4089439512 2.0618446927
C -3.3752898266 -2.8758365535 0.6979414771
C -2.3014582413 -1.9775429868 0.0814201966
C -0.5552133078 2.4444078185 -0.2773317890
C 0.5377850406 2.9236692730 0.4539160780
C 1.2812764584 4.0142547724 0.0248699698
C 0.9210102046 4.6332564141 -1.1650008019
C -0.1536561294 4.1946998923 -1.9284853591
C -0.8784993189 3.1019852998 -1.4687974132
Cl -2.2090318784 2.5219606713 -2.4487465753
Cl 1.8541215424 6.0040622776 -1.7371784090
H 3.5061849377 1.2273504816 -2.7700458096
H 3.5986215755 2.3983548492 -1.4495425883
H 2.0247504919 1.8188959970 -1.9980691073
H 2.8326789804 0.7583926648 0.1979367740
H 4.1953045424 0.0706085806 -0.6789649880
H 2.1669311653 -2.3738481090 -2.6942259767
H 3.7665691889 -1.6162808441 -2.5544302344
H 2.4209298376 -0.7283809331 -3.2983817952
H 3.6751912233 -2.2789670510 -0.1654023449
H 2.5012967334 -1.5696602541 0.9589540758
H 1.9900112517 -2.8327445772 -0.1824573477
H -1.3076566026 -0.4957645993 3.0673738364
H -0.5813417484 -1.9199807174 2.3046610290
H -2.2512817728 -2.6418494085 3.9760164218
H -3.5017800568 -1.6665696738 3.2062266341
H -3.7217454017 -4.0356045013 2.4941555069
H -2.0466237928 -4.0442480355 1.9338642055
H -4.3065902252 -2.3070099346 0.8106104502
H -3.5838158525 -3.7018523172 0.0096321896
H -2.6353453604 -1.5436806401 -0.8673012005
H -1.3958698962 -2.5641420325 -0.1191856737
H 0.8002021724 2.4281875778 1.3829294070
H 2.1250411448 4.3712846126 0.6031221869
H -0.4160750256 4.6826409987 -2.8590850507
