70
CONF580
C -0.3554802843 -1.6235658861 2.5537257483
C -1.2729156521 -2.6852845966 3.2086299892
C -1.8527680050 -2.1434946585 4.4732247399
C -2.3146820699 -2.7038685426 5.6361551281
N -2.7196790112 -1.6885515046 6.5004283645
C -2.5058914284 -0.4635690874 5.9056413696
C -2.7000816011 0.8562624452 6.3142245766
C -2.3275694781 1.8475929541 5.4124823281
C -1.7828391006 1.5627973475 4.1421897353
C -1.6012672775 0.2491576291 3.7299038473
C -1.9685212574 -0.7410560440 4.6357379314
C -1.0738546941 -0.2459954157 2.3990350242
C -0.1685895070 0.7826644950 1.7225984859
C 0.3543600919 0.2409651029 0.3974166010
C 1.0485192132 -1.0996391249 0.6556206472
N 0.1013375361 -2.0644827159 1.2190123049
C 0.7139241902 -3.4026524898 1.2099824679
C 0.9809922890 -3.8773960165 -0.1865087432
C 2.1382056600 -4.3767460333 -0.6093292966
C 1.3541969681 1.2010962801 -0.2352494691
O 2.0607075544 1.8952524050 0.4969104215
N 1.4519324727 1.2140815032 -1.6165191783
C 0.5880626829 0.3703337198 -2.4682709556
C -0.7190924720 1.0647926978 -2.8394345410
C -1.6100431546 0.1777832731 -3.7050743041
N -0.9257510312 -0.3532655157 -4.8850309342
C -0.4751632839 0.7138014763 -5.7782513817
C -1.8051432627 -1.2733407678 -5.5973392879
C 2.2855424358 2.1272588761 -2.3718724608
O 2.1595683412 2.1832215060 -3.5895095276
N 3.1779012658 2.8513972473 -1.6681012137
C 3.9734764425 3.8760059809 -2.3333953215
C 3.2001545213 5.1735970932 -2.5570828591
H 0.5138423831 -1.4652946628 3.2275287475
H -2.0597846575 -2.9492906718 2.4866718023
H -0.7092439808 -3.5972154449 3.4237461144
H -2.3943804668 -3.7384934607 5.9387263967
H -3.0853831663 -1.8354699461 7.4239834944
H -3.1131675302 1.1110706784 7.2847554160
H -2.4575286677 2.8865501724 5.6983810624
H -1.5089980794 2.3929377397 3.5002396743
H -1.9394958879 -0.4328428991 1.7419157624
H -0.7202080712 1.7129636871 1.5496422501
H 0.6736119161 1.0276174367 2.3785963772
H -0.4964804667 0.0582200575 -0.2638092260
H 1.4520081209 -1.5135825383 -0.2741378166
H 1.9093776634 -0.9246907723 1.3330611081
H 1.6459200766 -3.4446888484 1.8089949495
H 0.0079264785 -4.1091970899 1.6572509828
H 0.1300866121 -3.8182746414 -0.8653393207
H 3.0023383718 -4.4344767508 0.0478659481
H 2.2602749712 -4.7465598496 -1.6220187713
H 0.4001178220 -0.5799284869 -1.9644790390
H 1.1496190515 0.1409957618 -3.3731810124
H -1.2777526202 1.3295207502 -1.9327791980
H -0.4864554951 2.0055505079 -3.3480619844
H -2.5205403047 0.7493645950 -3.9851513573
H -1.9475834872 -0.6806853158 -3.1069440985
H -0.0075922373 0.2684149012 -6.6620396238
H 0.2760052851 1.3392968170 -5.2872097199
H -1.3082663476 1.3607779410 -6.1199863651
H -2.7243066015 -0.7824052254 -5.9764738924
H -1.2750745040 -1.7067285509 -6.4517193398
H -2.1069830257 -2.0910738698 -4.9337382510
H 3.1134085404 2.7952179409 -0.6550597800
H 4.8553224330 4.0562523046 -1.7093966354
H 4.3169570370 3.4742190622 -3.2914305181
H 2.3300646635 4.9883542165 -3.1925133474
H 3.8356990346 5.9152659046 -3.0514139715
H 2.8570945671 5.5931546104 -1.6064263824
