49
CONF3
C -3.5098324242 -0.9024190706 -1.6400107661
C -2.1554851759 -1.3032943731 -2.1872914406
C -0.9980934206 -1.6231685950 -1.2299126108
C -0.9950050275 -0.3532713467 -2.1146870141
C 0.0497756731 -0.3259112320 -3.2131317532
C -1.1506743699 1.0059013249 -1.4675396457
C -1.0942092569 -1.5227089064 0.2274314229
O -1.8221545311 -0.8210757149 0.8955181170
O -0.1492288772 -2.3588986194 0.7946585099
C -0.0394727063 -2.2889595178 2.2306254920
C -0.0053649626 -3.6614195256 2.7297768277
N 0.0120854058 -4.7380444184 3.1460787785
C 1.1774355497 -1.4739386988 2.6362460538
C 1.9832876888 -1.8501623509 3.7078612880
C 3.0596358930 -1.0448419828 4.0713555839
C 3.3325778868 0.1296045104 3.3841795207
C 2.5175456402 0.4933953415 2.3151460403
C 1.4429079830 -0.3012457023 1.9319775552
O 2.8801194014 1.6272157318 1.6211287267
C 1.9121282215 2.4195856668 1.0319556537
C 0.7033880641 2.7118155333 1.6601164078
C -0.1820332297 3.5895495870 1.0441025661
C 0.1346065474 4.1781082945 -0.1774579812
C 1.3487344603 3.8797195141 -0.7894147892
C 2.2402711247 2.9949355486 -0.1918513439
C -2.2899514829 -2.2422286335 -3.3713885353
H -4.0859464850 -1.7978164283 -1.3837865110
H -4.0638698485 -0.3591665999 -2.4140831364
H -3.4517772358 -0.2829096085 -0.7485536100
H -0.3202355566 -2.4042155751 -1.5580339958
H -0.2941047892 0.3056661752 -4.0405370246
H 0.9790460346 0.1065536552 -2.8270910044
H 0.2834253036 -1.3126996267 -3.6142354379
H -0.1793650105 1.3639352510 -1.1087581860
H -1.8379884018 1.0146873271 -0.6240645956
H -1.5067249089 1.7247388631 -2.2145133854
H -0.9472604174 -1.8033296985 2.6181173852
H 1.7822305770 -2.7688035407 4.2483074260
H 3.6940204461 -1.3394532015 4.9006718274
H 4.1686215027 0.7657154267 3.6520507758
H 0.8277115654 -0.0035094896 1.0909001828
H 0.4635113656 2.2613018451 2.6168203430
H -1.1247941054 3.8186803605 1.5302757304
H -0.5611692631 4.8635835865 -0.6490149970
H 1.6050554886 4.3326254209 -1.7418285266
H 3.1921657571 2.7504332572 -0.6503194349
H -2.9224191622 -3.0936832586 -3.0997072949
H -1.3345549234 -2.6373396022 -3.7186428563
H -2.7685724152 -1.7232371103 -4.2097773358
