65
CONF213
C 7.5893270338 -0.2031683701 0.1894589453
O 7.2892593673 -0.7032291288 -1.1179638791
C 6.2517763577 -1.5861595360 -1.2300411308
C 5.4740655742 -2.0355655684 -0.1618255040
C 4.4396904123 -2.9424839999 -0.4029658075
C 4.1574365931 -3.4151842520 -1.6824336697
C 4.9542081805 -2.9520013643 -2.7376860145
C 5.9871051023 -2.0523436165 -2.5233604409
C 3.0145697434 -4.3604271326 -1.9427442354
C 1.8162815039 -3.6759511810 -2.6177296302
N 1.2775430561 -2.5450692577 -1.8572082702
C 0.3523018369 -1.7697373519 -2.6915890639
C -0.1464314594 -0.5291399118 -1.9572279586
C -0.8305970214 -0.9242574151 -0.6534078889
C 0.1107573661 -1.7958615139 0.1800629697
C 0.5946247667 -2.9893092715 -0.6364114145
N -1.2603658924 0.2820549045 0.0591608767
C -2.1962896085 0.2059251916 1.0418757183
N -3.0097265818 -0.8190387012 1.2534284439
C -3.8391621166 -0.4026668010 2.2835594390
C -4.8880766064 -1.0714754836 2.9119824162
C -5.5757829006 -0.4092844924 3.9297038571
C -5.2310701221 0.8914862569 4.3177074665
C -4.1797093918 1.5769947151 3.7027749464
C -3.4994351537 0.9078666557 2.6963841430
N -2.4248980232 1.2733809050 1.8954433941
C -1.7822473729 2.5742526150 1.8389757089
C -2.1815831757 3.3864669485 0.6242409296
C -3.4676659567 3.2956196869 0.0894088732
C -3.8381085484 4.0663346143 -1.0084159693
C -2.8985852837 4.9254286133 -1.5532650252
C -1.6130323890 5.0423931221 -1.0539184373
C -1.2614719126 4.2594183162 0.0424066063
F -3.2508173305 5.6784035780 -2.6276120903
H 6.7356720522 0.3429422229 0.6087938080
H 8.4312830881 0.4778030596 0.0607191474
H 7.8750584866 -1.0161804805 0.8678751366
H 5.6579876341 -1.6965230566 0.8504549459
H 3.8399801161 -3.2854884858 0.4363922952
H 4.7629249552 -3.3061886216 -3.7478813849
H 6.6040227940 -1.7020514475 -3.3451484488
H 3.3412753659 -5.1650314554 -2.6127672422
H 2.7082745601 -4.8396798843 -1.0076508423
H 1.0342249164 -4.4357645547 -2.8187885367
H 2.1453471881 -3.2908861748 -3.5911215582
H -0.5182670632 -2.3853090588 -3.0015332294
H 0.8774054799 -1.4694260134 -3.6054888778
H 0.7058703016 0.1283411800 -1.7369007409
H -0.8427533745 0.0241430350 -2.5970335844
H -1.7354782599 -1.4988585522 -0.8852640721
H 0.9734115939 -1.1929730905 0.4939077673
H -0.4034559699 -2.1474292524 1.0810073938
H 1.2863677942 -3.5832638902 -0.0317180503
H -0.2684649430 -3.6430625471 -0.8831957263
H -0.5448189369 0.9877599684 0.1701294341
H -5.1608442016 -2.0782653575 2.6107002440
H -6.3977626243 -0.9116466575 4.4302957925
H -3.9202795045 2.5869556562 4.0039114237
H -2.0519897538 3.1090945337 2.7561774764
H -0.6927239317 2.4515013303 1.8680925315
H -4.1909142311 2.6132079168 0.5260572955
H -4.8327431478 4.0039199918 -1.4361650142
H -0.9061113075 5.7210828281 -1.5184350947
H -0.2541121897 4.3283381674 0.4435133748
H -5.7898779874 1.3801273761 5.1093855079
