54
CONF530
C 0.2275150647 -2.8505571902 1.4026389800
C -1.2748206821 -2.6068984379 1.5548966917
C -2.0417334872 -3.3340779531 0.4474432244
C -1.5968308314 -1.0929850582 1.6433224187
C -1.3671690169 -0.3868490496 0.2964250494
O -2.2391985525 -0.3408215975 -0.5704811188
N -0.1330115124 0.1502036302 0.1420436056
C 0.3545909416 0.6258085973 -1.1530580056
C 1.2496639298 1.8462719397 -0.9342815592
C 1.7053662461 2.4441294669 -2.2414401101
O 1.0917660998 2.3780715443 -3.2868548712
O 2.8722309861 3.0952791255 -2.0979019886
C 3.3644562897 3.7665915500 -3.2864565094
C 1.0437939016 -0.5019933506 -1.9015798494
C 0.4168685172 -1.0952602120 -2.9970004374
C 0.9999269098 -2.1692995967 -3.6637949237
C 2.2258501138 -2.6438080855 -3.2165379822
C 2.8771087271 -2.0745764385 -2.1283531992
C 2.2764979561 -1.0029397775 -1.4765683212
Cl 2.9777434081 -4.0013819538 -4.0497005101
N -2.9650379658 -0.9070301827 2.0897791415
C -3.4343155616 0.3536610733 2.2956332305
O -2.7267976129 1.3520396890 2.3357268687
O -4.7741452744 0.3418199157 2.4906627824
C -5.4198595528 1.6441191387 2.6910006212
C -5.6638539720 2.2927571949 1.3406832330
C -6.6967418243 1.3544037940 3.4531506479
H 0.5841028865 -2.5316313878 0.4171278270
H 0.8035385112 -2.3188702928 2.1677082588
H 0.4396374686 -3.9194728055 1.4995305168
H -1.5887005479 -3.0159644875 2.5249343386
H -1.8531315072 -4.4094411458 0.5221892973
H -3.1242850802 -3.1842682510 0.5046307525
H -0.9300983189 -0.6508116504 2.3938049539
H 0.5453888763 0.0165536376 0.8792070327
H -0.5241456005 0.9303819916 -1.7259525755
H 0.6772969859 2.6208370210 -0.4073161305
H 2.1175133553 1.6138436689 -0.3104252915
H 2.6436039193 4.5168366153 -3.6193963545
H 3.5379473849 3.0391611102 -4.0827050567
H 4.2989044112 4.2374043687 -2.9845879925
H -0.5414364401 -0.7147497853 -3.3377129116
H 0.5085028812 -2.6253586291 -4.5157221215
H 3.8334812878 -2.4608818270 -1.7946287379
H 2.7808680168 -0.5685576540 -0.6179595465
H -4.7433457584 2.2579571226 3.2934028629
H -6.1439235458 3.2659410394 1.4824616756
H -6.3238943844 1.6653742931 0.7329312377
H -4.7238793630 2.4463152737 0.8044035222
H -7.3545926042 0.7034296752 2.8686369806
H -7.2236006319 2.2928677197 3.6479274662
H -6.4793545856 0.8725523932 4.4102445504
H -1.7090710253 -2.9990145986 -0.5404400356
H -3.6448257154 -1.6176861779 1.8629928004
