55
CONF107
C 4.8548017093 -0.5527617045 -5.0923053186
O 3.6213540895 0.0864378809 -4.7809146884
C 3.0638145581 -0.1788352419 -3.5652048259
C 1.8487121705 0.4649785628 -3.3043591295
C 1.1983449588 0.2646258074 -2.1013980179
C 1.7407601482 -0.5826701338 -1.1260970846
C 2.9490914754 -1.2184613065 -1.3989182756
C 3.6189064992 -1.0264718135 -2.6064321040
C 1.0855550738 -0.7995996176 0.2083657668
S -0.6300460081 -1.4645634258 -0.0573058946
C -1.2479059333 -1.3674040634 1.6128754377
C -1.5109575045 -2.5405362408 2.3197980837
C -2.0750435305 -2.4942649952 3.5901176976
C -2.3526082400 -1.2638384138 4.1767692967
C -2.0767927818 -0.0874783970 3.4908925186
C -1.5421661497 -0.1241461637 2.2017556622
N -1.3327200782 1.0922076793 1.5030714966
C -2.4973973580 1.9509820739 1.2361187970
C -3.2525987252 1.5148965046 -0.0174089924
N -3.7957466858 0.1644402110 0.0857977704
C -4.9469469542 0.0958744035 0.9768885010
C -4.1324695558 -0.3640663446 -1.2314645278
C -0.1807070761 1.3743458717 0.8034474364
O -0.0962726493 2.3272450115 0.0450893241
C 1.0176425368 0.4647719541 1.1064662662
O 2.1802204296 1.2868829184 0.9093856721
C 3.3519690594 0.7850899041 1.3712421947
C 4.4883683499 1.6814307644 0.9756098848
O 3.4476690316 -0.2486848364 1.9926967230
H 5.1219175126 -0.2133537663 -6.0939056119
H 4.7490113603 -1.6455220567 -5.0938056274
H 5.6444677611 -0.2623903691 -4.3868737877
H 1.4361726544 1.1229270961 -4.0614315274
H 0.2661886562 0.7829095464 -1.9078218811
H 3.3870418555 -1.8736199153 -0.6509324001
H 4.5553570381 -1.5414707125 -2.7807259644
H 1.6519060545 -1.5542459262 0.7583157349
H -1.2773270936 -3.4921509725 1.8546183272
H -2.2829574131 -3.4157715554 4.1233372514
H -2.7701166709 -1.2162452476 5.1771572244
H -2.2702040462 0.8742514167 3.9557333977
H -2.1359990932 2.9726967519 1.0958525231
H -3.1439289156 1.9334220621 2.1172050187
H -4.0405166430 2.2689787071 -0.2299279547
H -2.5460351119 1.5410856480 -0.8539132347
H -4.6720188995 0.4046239829 1.9904100561
H -5.2989936514 -0.9388730536 1.0390444452
H -5.7911569428 0.7293763281 0.6370991646
H -4.9219222579 0.2216136628 -1.7435496410
H -3.2393862645 -0.3711276552 -1.8643781131
H -4.4861595518 -1.3960507057 -1.1343654412
H 0.9876611322 0.1383607787 2.1514796370
H 4.6511418559 1.5720791227 -0.1019114502
H 4.2402727164 2.7281959105 1.1641333788
H 5.3887513099 1.3898753850 1.5145764350
