46
CONF125
C -0.7963689035 -1.1651134382 2.2213048025
C -1.4646903450 -1.8754509647 1.0678804650
C -2.9606765487 -1.7987684303 0.8813852769
C -2.0168116413 -1.0925556542 -0.1180444600
C -1.9430248934 0.3771181668 -0.1975376244
O -2.0985015823 1.1755266842 0.7071776965
O -1.6677404475 0.7520153481 -1.4741058865
C -1.5193217600 2.1786010305 -1.6918267135
C -0.2011287746 2.6998394170 -1.1845788989
C 0.9572281613 1.9372824316 -1.3312391519
C 2.1751159647 2.4584331077 -0.9044078883
C 2.2617272654 3.7318921516 -0.3492574790
C 1.1009988031 4.4862821137 -0.2139175991
C -0.1287196383 3.9732845784 -0.6183193255
O 3.3634220366 1.7747933623 -1.0894185872
C 3.3832330864 0.4024691043 -0.8985718108
C 2.7829164946 -0.1874353191 0.2120544994
C 2.9105746449 -1.5608702564 0.3963011390
C 3.6262729540 -2.3365875793 -0.5147734312
C 4.2230842808 -1.7287231702 -1.6169497790
C 4.1032950800 -0.3555139835 -1.8158876146
C -3.8188094866 -1.0323894194 1.7846494784
C -5.0678379724 -1.3634521018 2.1135389004
Cl -6.0213932216 -0.4062448394 3.2198219439
Cl -5.9103085429 -2.7651909649 1.5064592307
C -0.8134050541 -3.1940656405 0.7105833846
H -1.2430704454 -0.1981892394 2.4477749564
H -0.8516811467 -1.7973239994 3.1139821886
H 0.2608266908 -1.0021673851 1.9877435525
H -3.4173145592 -2.6864571893 0.4553611124
H -1.9342407196 -1.5859239712 -1.0803099878
H -2.3522110536 2.7122887433 -1.2269616662
H -1.5850053877 2.2841656897 -2.7784180263
H 0.9132271070 0.9477778162 -1.7745937076
H 3.2261841074 4.1117627738 -0.0295697919
H 1.1558224752 5.4766039178 0.2269762505
H -1.0335874765 4.5598997750 -0.4914968775
H 2.2328082085 0.4221885722 0.9217695325
H 2.4560354457 -2.0255198006 1.2657091812
H 3.7213784142 -3.4066377020 -0.3626793643
H 4.7836076448 -2.3237848162 -2.3311612160
H 4.5614808491 0.1341780631 -2.6687931133
H -3.4277908183 -0.1244797589 2.2293915404
H 0.2260570641 -3.0296790469 0.4060184518
H -1.3382387708 -3.6952070616 -0.1074947430
H -0.8134162974 -3.8586711198 1.5814547517
