49
CONF37
C -3.0893474333 -1.8277719156 -1.1465451219
C -3.1578992789 -1.4805702863 0.3257454378
C -2.4006923836 -0.2533646486 0.8705344887
C -1.9711488437 -1.6995470955 1.2167745534
C -2.1664244135 -2.1032227147 2.6651351620
C -0.6801726371 -2.2522802835 0.6510404410
C -1.5830116607 0.6192979635 0.0306578469
O -0.9438516868 0.3450802488 -0.9648229460
O -1.6115906698 1.9029251411 0.5448071814
C -0.7474221394 2.8513466748 -0.1362428856
C -1.3778911795 4.1581573474 0.0382476983
N -1.8545470800 5.2020266020 0.1661240537
C 0.6511660206 2.8034302811 0.4385943685
C 1.6407877405 2.1363730997 -0.2780133921
C 2.9077456141 2.0029536407 0.2839033911
C 3.2007177404 2.5526142314 1.5285705849
C 2.2053714823 3.2330369872 2.2235832758
C 0.9263702226 3.3545123192 1.6910002933
O 3.9406829826 1.3835651955 -0.3882800843
C 3.6567843433 0.2825371364 -1.1847696273
C 2.7953986410 -0.7266663218 -0.7595570166
C 2.6063394705 -1.8380137635 -1.5754567248
C 3.2745212355 -1.9461418490 -2.7941393811
C 4.1400857192 -0.9317120436 -3.1973940993
C 4.3332012939 0.1907758703 -2.3961770015
C -4.5618247797 -1.6619067223 0.8715085607
H -3.3828494576 -2.8758264070 -1.2769674414
H -2.1041530905 -1.6859751115 -1.5852135256
H -3.8003773359 -1.2105670115 -1.7065155418
H -2.8998364639 0.2738807939 1.6769146273
H -3.0312660137 -1.6289834667 3.1304092849
H -2.2927547567 -3.1902090844 2.7326685285
H -1.2793214879 -1.8318484026 3.2471918698
H 0.1613952276 -1.9528241670 1.2857925998
H -0.4720343010 -1.9134433403 -0.3616309854
H -0.7269579291 -3.3473972396 0.6512758925
H -0.7249608235 2.6206845996 -1.2075467841
H 1.4221653128 1.7118224304 -1.2510176535
H 4.1991547181 2.4417270273 1.9379984193
H 2.4304213142 3.6630983094 3.1940105840
H 0.1491333456 3.8727286267 2.2440959816
H 2.2798900776 -0.6434140997 0.1914854285
H 1.9368021666 -2.6276036065 -1.2486572060
H 3.1227334975 -2.8166909321 -3.4235338498
H 4.6657173287 -1.0071847995 -4.1441229678
H 4.9999045558 0.9921390943 -2.6969535952
H -4.8359039030 -2.7231039882 0.8487792147
H -4.6760046991 -1.3005270474 1.8941147131
H -5.2742446030 -1.1179162617 0.2422628438
