46
CONF34
C -0.3239505539 2.3975741192 -1.4889930969
C -0.7980613583 1.7286690773 -0.1997123201
C -2.2953382761 1.8964357270 0.0773921881
C -3.2054914480 1.2862348127 -0.9720468028
O -2.9484115493 -0.1501087067 -1.1147710802
C -3.5866648512 -0.9660929247 -0.2740283673
O -4.3959143084 -0.6248534020 0.5649823900
C -3.2531003626 -2.4367012253 -0.5298846956
C -4.2455134159 -3.0122990821 -1.5293485938
O -1.9487281914 -2.6210897771 -1.0871229061
C -0.8674003893 -2.2722484139 -0.3248095990
C -0.9335222749 -1.8871608996 1.0159050250
C 0.2389516277 -1.5472195822 1.6908068696
C 1.4506640368 -1.6041968576 1.0263710493
C 1.5308916628 -1.9963708490 -0.3053792394
C 0.3670417414 -2.3256452342 -0.9818360101
O 2.6231180987 -1.3291357362 1.7445467951
C 3.2694615475 -0.1625085831 1.4944366606
C 4.4990767432 0.0157564573 2.1446280942
C 5.2511918379 1.1554371594 1.9934561871
C 4.7630461508 2.1727069562 1.1559536470
C 3.5364429375 2.0172889799 0.4978279463
C 2.7974710972 0.8564877322 0.6668440649
C 5.5188098581 3.3611856801 0.9815972712
N 6.1343049622 4.3332242337 0.8377789506
F 4.9440689459 -0.9734187551 2.9450805265
H -0.7676674005 1.9318784481 -2.3748340507
H -0.5877998079 3.4611715532 -1.4994640880
H 0.7635581993 2.3193372680 -1.5896131160
H -0.5528807677 0.6596650118 -0.2251953036
H -0.2492404214 2.1492225374 0.6517728708
H -2.5428826106 1.4675351943 1.0554888402
H -2.5442507502 2.9650975948 0.1267970283
H -4.2590967474 1.4298500125 -0.7213543770
H -3.0106573208 1.6865686926 -1.9685492315
H -3.3393027496 -2.9624886384 0.4286127335
H -4.1636344043 -2.4942984230 -2.4887548292
H -4.0394362795 -4.0754932218 -1.6741558197
H -5.2623025413 -2.8992917326 -1.1457530957
H -1.8734189893 -1.8402047996 1.5525329738
H 0.2052640152 -1.2396180941 2.7305770254
H 2.4936520767 -2.0367673229 -0.8046577617
H 0.3983125150 -2.6302030202 -2.0225530634
H 6.1970818971 1.2524776682 2.5138763535
H 3.1628527925 2.8065877119 -0.1443797307
H 1.8494053119 0.7370225478 0.1569543743
