24
CONF313
C 2.3466172572 1.2375534433 0.6548650450
C 1.1846084627 0.3094732095 0.9756127674
C 0.3300617570 0.0345613149 -0.2651789767
C -0.8500806664 -0.9016040516 0.0423202657
C -1.8954049859 -0.8981611399 -1.0936699581
C -2.6518312441 0.4026822679 -1.1429213689
O -2.7419348761 1.0512682747 -2.1670538698
O -1.3018836441 -1.1897277292 -2.3507793102
O -0.3949625909 -2.2237430870 0.3058071150
O 1.1929270399 -0.5583439821 -1.2416898365
O 0.3906051750 0.9792648358 1.9693839884
O 3.1398970787 1.4924152600 1.8160863654
H 3.0024698726 0.7776382044 -0.0867379503
H 1.9477827819 2.1767773832 0.2381059663
H 1.5725811445 -0.6384203909 1.3723653029
H -0.0679130128 0.9984924101 -0.6264003434
H -1.3604387823 -0.5522054285 0.9476423610
H -2.6421157342 -1.6705929130 -0.8332242700
H -3.1359789746 0.7237154346 -0.2012748316
H -1.6325503475 -0.5164173746 -2.9719964691
H 0.3288586245 -2.3976074257 -0.3158051758
H 0.6320752875 -0.7538931922 -2.0112230799
H 0.0810403179 0.3279291489 2.6094035514
H 2.5255695301 1.7889452151 2.5020557124
