20
CONF4
C 3.7274652923 -0.2932572415 -0.0119286452
C 2.2915752868 -0.7725986142 0.0095893197
O 2.0181707031 -1.9681917626 0.0456765954
N 1.3544378102 0.2265486172 -0.0145543988
C -0.0524504669 0.1310551600 -0.0041795017
C -0.7740626086 1.3299987774 -0.0356417739
C -2.1620124967 1.3288677356 -0.0272487680
C -2.8541942929 0.1187978528 0.0128023155
O -4.2215872644 0.0478785378 0.0233980115
C -2.1430294657 -1.0784160657 0.0439758965
C -0.7535506192 -1.0806796484 0.0358705014
H 4.2319499257 -0.6803071165 0.8777666821
H 4.2222087680 -0.7293693291 -0.8842507231
H 3.8369948238 0.7930500520 -0.0428859889
H 1.7147654801 1.1677351967 -0.0432632556
H -0.2450434227 2.2788091523 -0.0669749824
H -2.7038928996 2.2706290595 -0.0518555174
H -4.5870672809 0.9407173224 -0.0020401256
H -2.6880529503 -2.0160707940 0.0750978629
H -0.2126247187 -2.0151964896 0.0606462947
