44
CONF17
C 4.5465809803 1.7640049663 3.1695997666
C 3.6938471710 1.0819672680 2.1546541772
N 2.8299060482 0.1577459441 2.5808465523
C 2.0832733825 -0.3984955606 1.6098164470
N 2.1515361870 -0.1068506144 0.3118845001
C 3.0482427140 0.8425355759 0.0091041078
N 3.8435391942 1.4670341325 0.8732030145
O 3.0950262226 1.1339202474 -1.2844423501
C 4.0277735007 2.1605577726 -1.7101345661
N 1.1804392711 -1.3452779519 2.0439258411
C 0.2119791357 -2.0793985736 1.3503371484
O -0.5790656142 -2.7821054568 1.9580427485
N 0.2423167856 -1.9474289621 -0.0183979995
S -0.9938205243 -2.5593067168 -1.0237310701
O -0.6744712250 -1.9715709598 -2.3327322096
O -1.0452875263 -4.0153921316 -0.8775955245
C -2.5178452790 -1.8580981281 -0.3805033473
C -3.4423791566 -2.7685039643 0.1295597781
C -4.6598173116 -2.3078694906 0.6119495535
C -4.9339938302 -0.9436180445 0.5914629665
C -3.9954941693 -0.0490181084 0.0909571741
C -2.7627745962 -0.4757664183 -0.4129618257
C -1.8196828053 0.5640310595 -0.9636295384
C -2.1487930893 0.8883324764 -2.4287883235
C -1.1925164290 1.8949055608 -3.0051724271
F -1.4950761514 2.1963713277 -4.2934154643
F -1.1967161108 3.0684175568 -2.3177319254
F 0.0924787184 1.4512630597 -2.9988846550
H 5.5595092220 1.8989176508 2.7837827591
H 4.1353467770 2.7622093057 3.3622525047
H 4.5614006277 1.2057072551 4.1055080170
H 3.7913040810 3.1095862739 -1.2247208949
H 5.0512381740 1.8618170865 -1.4744225830
H 3.8847076778 2.2321053553 -2.7872732078
H 1.1636130437 -1.4970714266 3.0447190637
H 0.8942331701 -1.2575523713 -0.4216377255
H -3.2027629269 -3.8246415519 0.1493817598
H -5.3831134228 -3.0120676865 1.0082915813
H -5.8793091362 -0.5720103457 0.9734460177
H -4.2135571609 1.0153188746 0.0868842318
H -0.7787343958 0.2492966798 -0.8865478944
H -1.9291641864 1.4713928033 -0.3622319372
H -2.0872877093 -0.0107326668 -3.0474963463
H -3.1566303385 1.3053389033 -2.5182140772
