22
CONF86
C 2.4819292812 -1.0862261129 -0.1996651356
C 1.3229163432 -0.1874793137 -0.6258584076
C 0.1038270324 -0.3085243161 0.3012270023
C -0.9297388930 0.7875449582 0.0386843839
C -2.1334383432 0.6844302257 0.9629782986
O -3.1107080165 1.6841183511 0.6339139495
O -1.3556029760 0.6990477908 -1.3322145218
O -0.4638570910 -1.6175458837 0.2221234225
O 0.9938303095 -0.6035331145 -1.9590862978
O 3.0334944720 -0.6909912898 1.0589642413
H 3.2797266563 -0.9900689015 -0.9431350555
H 2.1515999669 -2.1329586387 -0.1823120546
H 1.6660701394 0.8591983593 -0.6135904047
H 0.4433688915 -0.1732459239 1.3366486645
H -0.4325609759 1.7582355617 0.2093815283
H -2.6269416352 -0.2810478699 0.8230204501
H -1.8089601600 0.7714099312 2.0091609398
H -2.7524319986 2.5436792524 0.8916945822
H -2.1163296633 1.2895271345 -1.4289129211
H -0.5058363733 -1.8395970307 -0.7199970034
H 0.2416506254 -0.0601725040 -2.2433103700
H 2.5179932072 -1.1058004643 1.7602847093
