44
CONF84
C -3.9073461129 1.6760699216 3.8851086404
C -3.0204973061 0.8033040991 3.0238921198
C -3.4036097231 -0.6920528985 3.0179659692
O -4.0429870863 -0.8827603809 1.7441427437
C -3.3769446796 0.0158812221 0.8757631378
O -3.1955669397 1.1957430963 1.6350442770
C -4.3417324179 0.3164859926 -0.2847235878
N -3.6988716002 1.0530835981 -1.3550398902
C -3.1473354021 0.5633777479 -2.4848523675
N -2.5495141666 1.5341020900 -3.1631042869
C -2.7642269078 2.6241848237 -2.3730865110
N -3.4520875838 2.3836548888 -1.2641360640
C -2.0253891348 -0.5261730339 0.3951162983
C -1.8377942894 -1.7954337515 -0.1637295723
C -0.5996802513 -2.2325270947 -0.6128373863
C 0.4929505192 -1.3746746678 -0.5267074812
C 0.3484676437 -0.0946352878 -0.0000530608
C -0.9022965980 0.3039252310 0.4503339798
O 1.6718107505 -1.8542829387 -1.0464683653
C 2.8710093830 -1.3106932245 -0.6085832353
C 3.1967254708 -1.2864059877 0.7443807789
C 4.4391312926 -0.8036684707 1.1382267114
C 5.3331798474 -0.3652251699 0.1667785617
C 5.0167336355 -0.3982006655 -1.1854576431
C 3.7678699374 -0.8737186397 -1.5745789877
Cl 6.9073310488 0.2433425267 0.6656041916
Cl -3.1695587290 -2.9342291118 -0.3531335783
H -3.6712736763 2.7327615567 3.7315708972
H -4.9601876726 1.5064714409 3.6382920714
H -3.7482949327 1.4374300091 4.9413807923
H -1.9647566907 0.9302048425 3.2950631812
H -2.5193583646 -1.3371776947 3.0974063674
H -4.1254830688 -0.9512162179 3.7950475649
H -4.7080952893 -0.6253145757 -0.6980090200
H -5.1811455850 0.8965047834 0.1054506392
H -3.2172106377 -0.4801018381 -2.7652000046
H -2.4153236024 3.6188576787 -2.6205114362
H -0.4757660712 -3.2234883470 -1.0332483564
H 1.1912528229 0.5844800985 0.0530495530
H -1.0259533390 1.3023651461 0.8532472268
H 2.4877815440 -1.6420237986 1.4845944945
H 4.7094445836 -0.7792186850 2.1876453270
H 5.7274985456 -0.0539135212 -1.9277688629
H 3.4904466650 -0.9078557485 -2.6224907571
