41
CONF15
C -2.3427746115 2.5480531028 -1.3465930282
C -1.6371863302 3.0249973540 -0.0720443111
C -0.6342233001 4.1301819943 -0.3878036493
N -0.9378768297 1.9537661354 0.6606466567
C -1.7909371528 0.8393034690 1.0874041512
C -1.2026675514 0.1968910828 2.3435915007
O -1.0762518975 1.1672334116 3.3838577015
C 0.1755783645 -0.4226333367 2.1208140117
O 0.0807961115 -1.3217965128 1.0116724675
C 1.2184301141 -1.9354563987 0.5743503629
C 2.4213391019 -1.9406033828 1.2817762950
C 3.5257124180 -2.6099603530 0.7552084748
C 3.4366306457 -3.2673334642 -0.4652533106
C 2.2307950443 -3.2449367663 -1.1657526441
C 1.1120675598 -2.5834387092 -0.6695464762
C -0.1649249058 -2.4956681651 -1.4567903409
C -0.3570963671 -1.1894211160 -2.1857433893
C 0.5176818017 -0.1880857851 -2.2432606827
H -3.0685652982 1.7571887306 -1.1341940774
H -2.8770721468 3.3760522041 -1.8244896813
H -1.6097350194 2.1568467713 -2.0613239991
H -2.3957841794 3.4253088940 0.6165075566
H -1.1268606758 4.9685084797 -0.8890729103
H 0.1491204010 3.7530078373 -1.0570230938
H -0.1578417765 4.4978023945 0.5256227006
H -0.1943209226 1.5924617344 0.0662783421
H -2.7754722528 1.2403856214 1.3585325181
H -1.9439409253 0.0724152038 0.3129152185
H -1.8924189159 -0.5756348273 2.7042762580
H -0.7411888712 1.9602182937 2.9314854274
H 0.4852673070 -0.9504943471 3.0319987584
H 0.9109415649 0.3659613348 1.9029762825
H 2.5058807560 -1.4350715350 2.2360465975
H 4.4577572738 -2.6124878346 1.3118277601
H 4.2953540812 -3.7898016190 -0.8732119634
H 2.1549898428 -3.7429095051 -2.1290096566
H -0.1937530863 -3.3082802716 -2.1947518009
H -1.0306692304 -2.6543567235 -0.8012682299
H -1.3054511435 -1.0979727259 -2.7158301644
H 1.4760037502 -0.2401083667 -1.7323518347
H 0.3026677542 0.7105080986 -2.8124737927
