51
CONF23
C 0.6102420315 -3.4697171079 -1.8291004549
N -0.1485422647 -2.8573600172 -0.7416798648
C -0.7536960736 -3.9161642600 0.0782120898
C -1.4989711775 -3.3522733821 1.2793188063
C -2.5771529608 -2.3797314646 0.8122052621
C -1.9366464788 -1.3059490451 -0.0596391667
C -1.1694206692 -1.9147947867 -1.2380374272
C -0.5523666243 -0.8186055646 -2.1238482662
C 0.6007725854 -0.0561781570 -1.4524592025
N 0.1334435389 1.0832313651 -0.6608013209
C -0.5553224837 2.1251484696 -1.3103230386
C -0.4552736346 2.3347046271 -2.6907370310
C -1.1768215877 3.3514309907 -3.3092212044
C -1.9862665704 4.1987977072 -2.5624729157
C -2.0725706728 4.0214660553 -1.1845236766
C -1.3849085943 2.9822301656 -0.5679344536
S -1.6101859126 2.6617111177 1.1655359377
C 0.0396040432 2.1180148738 1.5346361436
C 0.7345449219 1.3510172161 0.5822078850
C 2.0085194177 0.8822937333 0.9046360811
C 2.5632793145 1.1157107340 2.1691641840
C 1.8607958592 1.8687505395 3.1087565418
C 0.6132242204 2.3858559163 2.7689735246
S 4.1707080595 0.4128458304 2.4501619928
C 4.6092370879 1.0394045491 4.1030029853
H 1.2357843271 -2.7323823821 -2.3411958362
H -0.0370629324 -3.9569880888 -2.5855652273
H 1.2780229514 -4.2321366761 -1.4159001322
H 0.0507453969 -4.5824446712 0.4121388931
H -1.4546445378 -4.5316393301 -0.5266943972
H -1.9316031027 -4.1783734841 1.8554512427
H -0.7868660031 -2.8298921668 1.9305332798
H -3.0904992655 -1.9231613326 1.6655503722
H -3.3353828516 -2.9259908172 0.2330717737
H -2.6921390883 -0.6143952108 -0.4497428402
H -1.2463592613 -0.7112599381 0.5488355293
H -1.9005738517 -2.4627524450 -1.8744027566
H -1.3525518915 -0.1274952442 -2.4064018282
H -0.1901075513 -1.2543504555 -3.0607685775
H 1.0880984334 -0.7493536392 -0.7625738660
H 1.3542123495 0.2518366958 -2.1946086058
H 0.1791467652 1.6935728260 -3.2909481053
H -1.0928822849 3.4823661029 -4.3830642644
H -2.5428712312 4.9962914337 -3.0421631750
H -2.6916642993 4.6774993860 -0.5810588412
H 2.5883108388 0.3371848560 0.1688501171
H 2.2650503775 2.0704149764 4.0920232094
H 0.0662525862 2.9871055791 3.4884070404
H 5.6159284864 0.6658934768 4.3040241029
H 4.6261858572 2.1325513045 4.1199855459
H 3.9312432015 0.6560591390 4.8701843164
