54
CONF1107
C 3.9993392405 2.8281449243 1.8146721634
C 4.6260181934 1.7680607343 2.7325764283
C 3.6184011331 0.7224959575 3.1076801153
C 3.3653085418 -0.4030273780 2.3430306303
C 2.3670552726 -1.3156277971 2.7537384701
N 1.6646692521 -1.0643235461 3.8709466722
C 1.9784453251 0.0454794468 4.5373440718
N 2.9033309633 0.9481259077 4.2326386577
N 2.1134467473 -2.4607150699 2.0691699300
C 0.9299631595 -3.2660809301 2.3318403017
C -0.3266320927 -2.6652463018 1.7253621709
O -0.1155211254 -2.6197773091 0.3145012244
C -1.0321376375 -1.9482016319 -0.4557200056
C -0.6925085795 -1.7652922233 -1.8061758558
C -1.5922052352 -1.0995823922 -2.6543079556
C -2.8162399432 -0.6127966104 -2.1553209969
C -3.1170002642 -0.8183694072 -0.8113761603
C -2.2437871006 -1.4780607867 0.0434260907
C -3.7703055944 0.2074991700 -2.9846775750
C -3.3352523280 1.6737377162 -3.1172922092
O -3.2676284027 2.3077117460 -1.8448621198
C -1.9417033069 2.4320386703 -1.3237633467
C -2.0483793631 2.8993142817 0.1112258430
C -1.1945464147 -0.9000015532 -4.0942896916
C 0.6220289636 -2.2767477345 -2.3297669462
Cl 4.2549452182 -0.7223510630 0.8571552958
H 3.6541500667 2.3805628160 0.8780065268
H 4.7308537086 3.6045638289 1.5736436393
H 3.1447608079 3.3001214619 2.3076349342
H 4.9676616914 2.2372416243 3.6590372977
H 5.4871871230 1.3092250808 2.2386661241
H 1.4004792663 0.2331626942 5.4426215381
H 2.4944643634 -2.5131481993 1.1374891280
H 0.7956565925 -3.3623826410 3.4119289737
H 1.1016244678 -4.2622155875 1.9110488676
H -0.4921535409 -1.6545330707 2.1221200076
H -1.1977141209 -3.2922588429 1.9677032763
H -4.0549445370 -0.4386281984 -0.4176909820
H -2.5200827688 -1.6223321414 1.0803554356
H -4.7556236403 0.1975610763 -2.5068817908
H -3.9067299363 -0.2103183352 -3.9895730777
H -2.3677144349 1.7466715528 -3.6367809826
H -4.0770983957 2.2202184883 -3.7144614355
H -1.3750493890 3.1587571774 -1.9309796318
H -1.4183972660 1.4658491035 -1.3726420965
H -2.5905086591 3.8474929902 0.1687972007
H -2.5818822557 2.1560448443 0.7106097563
H -1.0506968177 3.0395209777 0.5381228403
H -2.0175315420 -0.5274022460 -4.7032858704
H -0.8445894121 -1.8358907837 -4.5414488087
H -0.3699990137 -0.1812831340 -4.1812240058
H 0.4775386198 -3.1419185500 -2.9887006750
H 1.1402045347 -1.5109064910 -2.9151676048
H 1.2770290720 -2.5870319012 -1.5167038830
