56
CONF55
C -4.2615904214 1.4707280244 -1.5453423535
C -3.0350371260 2.3155651349 -1.2033574251
C -3.1048729139 3.6794783389 -1.8918144156
C -1.7453979695 1.5660555404 -1.6191071690
C -1.5850427736 0.2121676483 -0.9495188378
C -1.6076222982 0.0668952898 0.4382098340
C -1.5315046618 -1.1857177602 1.0403803780
C -1.4186427249 -2.3171492759 0.2358782089
C -1.3721899224 -2.1964427549 -1.1492353969
C -1.4550821824 -0.9392465980 -1.7302434100
O -1.3846848263 -3.6137747082 0.7172172528
C -1.0225444419 -3.8151051742 2.0295701273
F -0.7837998416 -5.1363715246 2.1570263521
F -2.0665411127 -3.5157048997 2.8704428984
C -0.4953837002 2.3961552264 -1.3995763777
O 0.3614523484 2.6120228167 -2.2196622512
O -0.4383220644 2.8704088328 -0.1181708392
C 0.8230243217 3.5070145462 0.2280498276
C 0.5498912402 4.2909882187 1.4302352390
N 0.3667012670 4.9104994520 2.3871398473
C 1.8930339543 2.4641406685 0.4568675936
C 3.0641436434 2.4785637040 -0.2922249284
C 4.0074239141 1.4699484862 -0.1118643237
C 3.7755261996 0.4417227357 0.7918140111
C 2.5890989786 0.4353725921 1.5234329781
C 1.6532081217 1.4456606779 1.3779864542
O 2.3351171869 -0.5495831486 2.4589544845
C 2.3454028180 -1.8625185130 2.0291004804
C 2.6293357920 -2.8283600108 2.9919008070
C 2.6060224364 -4.1719294196 2.6347000211
C 2.3085655188 -4.5519457085 1.3279590674
C 2.0163730330 -3.5754411633 0.3806242151
C 2.0261420187 -2.2258926210 0.7216706251
H -4.3140590374 1.2875990045 -2.6252750340
H -4.2414455123 0.5024478524 -1.0377117139
H -5.1769686155 1.9920943130 -1.2500227758
H -3.0025481351 2.4717511390 -0.1183029195
H -4.0217924178 4.2047546002 -1.6091620720
H -3.1067238957 3.5622602154 -2.9817879348
H -2.2590220350 4.3198285413 -1.6216021749
H -1.7798123018 1.4062211235 -2.7024325242
H -1.7122124382 0.9418351062 1.0705094096
H -1.5938489298 -1.2665297423 2.1186489971
H -1.2841575690 -3.0924976804 -1.7535396469
H -1.4300258046 -0.8522809839 -2.8124483163
H -0.1420906769 -3.2351170328 2.3368891594
H 1.1222426993 4.1805425538 -0.5831852814
H 3.2274305919 3.2580273905 -1.0285816070
H 4.9258519032 1.4799697271 -0.6890681347
H 4.4950436786 -0.3581387617 0.9307749143
H 0.7413027015 1.4176531388 1.9642111582
H 2.8644192431 -2.5128615463 4.0025131004
H 2.8241319160 -4.9258965224 3.3839706012
H 2.2860351365 -5.6010239963 1.0557584050
H 1.7586480385 -3.8610142315 -0.6341760135
H 1.7773988556 -1.4678290572 -0.0131218656
