40
CONF100
C -3.5923700676 1.9539926502 -0.5265218602
C -3.5449971786 0.6801854238 0.2832720642
O -2.3512863055 -0.0524296001 -0.1261486710
P -2.2029676133 -1.6243781831 0.2132865021
S -3.6595437302 -2.7915594972 -0.2907106272
O -0.7566841797 -1.8959867269 -0.4331249067
C -0.5960603742 -2.3586207305 -1.8073935433
C -0.6930605279 -1.2130866034 -2.7906887524
S -1.8470025385 -1.7737538386 2.2868200481
C -0.6738226134 -0.3327667148 2.6990191498
C -0.0161593827 -0.7516349755 4.0057152686
Cl 0.9854976257 0.6197916279 4.6513636679
N 0.2528596013 -0.0087048394 1.6604736722
C 0.1552119565 1.1952348182 0.9273271775
O -0.6150114703 2.0975857433 1.1637917228
C 1.1847471776 1.0932974000 -0.1337861051
C 1.4927235623 1.9743417292 -1.1546175819
C 2.5050023049 1.5988726652 -2.0404349505
C 3.1815218415 0.3854863977 -1.8906747731
C 2.8683426800 -0.4926221140 -0.8503192379
C 1.8587139048 -0.1151888584 0.0154838741
C 1.2886330062 -0.8404730044 1.1797851782
O 1.6198303731 -1.9020548278 1.6518116224
H -2.6936971928 2.5500500917 -0.3526011539
H -3.6762113087 1.7287068452 -1.5931660180
H -4.4659253894 2.5411124075 -0.2270579240
H -4.4222465892 0.0479809620 0.1049897422
H -3.4644662336 0.8871153434 1.3566903902
H -1.3458390291 -3.1325412942 -2.0036249824
H 0.3973162299 -2.8149492560 -1.8135847530
H -1.6960007077 -0.7780292656 -2.7895643489
H -0.4785243889 -1.5834334624 -3.7985856836
H 0.0302437035 -0.4294251042 -2.5460799986
H -0.7799256055 -0.9753540592 4.7535269092
H 0.6438001797 -1.6069893913 3.8641236295
H 0.9596670979 2.9131163404 -1.2593573073
H 2.7726337380 2.2586372651 -2.8591790618
H 3.9641882157 0.1241049194 -2.5953255023
H 3.3890115270 -1.4355368207 -0.7215396838
H -1.2936276860 0.5563261540 2.8454526859
