68
CONF66
C 1.1314776875 -4.6370517885 -0.6646832973
C 0.7885901451 -3.4785092673 -1.5987824028
C 1.6709252517 -2.2209743402 -1.4237162162
C 1.1669668830 -1.1202908619 -2.3759238729
C 1.5647286778 -1.7035997666 0.0105556809
O 0.2828766983 -1.5282245736 0.3874304937
C 0.0386018781 -1.1042748943 1.7708221123
C -0.0008602528 -2.3615539138 2.6241165152
C -0.2525786201 -2.0323806686 4.0938357881
C -1.4035085481 -1.0811171270 4.2049732382
C -1.8816640548 -0.3392296072 3.1892027523
C -3.0146113530 0.5529818674 3.3874171681
C -3.3838800627 1.4735796259 2.4843652390
C -2.6238186788 1.7299386035 1.2161698954
C -1.2030507616 1.1242701455 1.3011697249
C -1.2872755775 -0.3456037401 1.7896443420
C -0.4110246700 1.3000936777 0.0037585866
C -0.2958012511 2.7527168395 -0.4609777396
C 0.6039721625 2.8904692620 -1.6732797668
C 0.7978481329 4.3177765969 -2.1506355359
C 1.6682082302 4.3783465238 -3.4198189968
C 1.7892408075 2.9818097688 -4.0685108610
C 0.5263549090 2.1729506128 -3.9755607341
O -0.0499294643 2.1371091910 -2.7561484746
O 0.0100382089 1.5643130561 -4.8917536266
O 1.1870131916 5.3534980641 -4.3500389015
C -3.4391884792 1.2649870301 -0.0036188123
C -0.4967785559 -3.3039187031 4.9132766216
O 2.5131139770 -1.4582138869 0.7321436931
C 3.1382036775 -2.5248471180 -1.7376316324
H 0.4367192510 -5.4683915316 -0.8175247945
H 2.1434080089 -5.0134433698 -0.8395295830
H 1.0598029280 -4.3364454390 0.3869058005
H 0.8934715530 -3.7994587521 -2.6428533110
H -0.2587743990 -3.1912124194 -1.4597085737
H 1.2945165859 -1.4560987467 -3.4103912922
H 0.1097014840 -0.9010301346 -2.2095257557
H 1.7389067769 -0.1953749070 -2.2444201257
H 0.8623991151 -0.4533539334 2.0857656298
H 0.9412354943 -2.9083338761 2.5118170833
H -0.8110819295 -3.0056893885 2.2554987159
H 0.6465613448 -1.5407582086 4.5008580018
H -1.8806241901 -0.9916162293 5.1812734565
H -3.5709369702 0.4452705223 4.3166943088
H -4.2643845564 2.0872386869 2.6660580338
H -2.5124803581 2.8200402952 1.1287937321
H -0.6727406335 1.6814991512 2.0898067232
H -1.9803176947 -0.8905192420 1.1306379601
H -0.8530007226 0.6902258849 -0.7899826022
H 0.6072041029 0.9231825229 0.1522278691
H -1.2739447226 3.1813656466 -0.7083949866
H 0.1320905437 3.3675957511 0.3413256170
H 1.5700206779 2.4059468468 -1.4724590489
H 1.2329823285 4.9212953490 -1.3491013791
H -0.1931501459 4.7334361772 -2.3744012474
H 2.6782845055 4.7155903687 -3.1720668172
H 2.0913153826 3.0665549751 -5.1131174945
H 2.5678841477 2.4178614376 -3.5369086776
H 0.2610856366 5.1582307333 -4.5483541108
H -3.5504094518 0.1761647734 -0.0155216214
H -2.9732867927 1.5746556682 -0.9439429794
H -4.4431286954 1.6999335138 0.0323863882
H -1.3893191561 -3.8253995576 4.5501933386
H -0.6477720652 -3.0634580915 5.9704448609
H 0.3562828379 -3.9856333599 4.8344615873
H 3.5670492701 -3.2415477518 -1.0335367305
H 3.2104024700 -2.9404959460 -2.7477828061
H 3.7398380616 -1.6128766463 -1.6948652973
