38
CONF27
C -5.9393740099 2.1717162896 0.6939013230
C -4.9001701107 1.1028097649 0.3846160593
C -5.5453652676 -0.2791171578 0.4888269347
O -5.5359553509 -0.9752525569 1.4791741979
O -6.1658377822 -0.5853737334 -0.6585146449
C -6.8997280258 -1.8393797552 -0.6603910252
O -3.8631479830 1.2402300956 1.3530673332
C -2.7232347912 0.4985912056 1.1950161697
C -1.7649601956 0.6600520491 2.2013643416
C -0.5681381867 -0.0366644773 2.1415450446
C -0.3377444263 -0.8909446756 1.0715601266
C -1.2745527577 -1.0664367131 0.0707391499
C -2.4803780733 -0.3680127794 0.1273346590
O 0.8352199307 -1.6661092892 1.0505067917
C 1.9477575041 -1.1248122673 0.5116244146
C 3.1180973458 -1.9102713503 0.5273558157
C 4.2729943011 -1.3916901443 -0.0127649468
C 4.2330700164 -0.1040414146 -0.5578321197
C 3.0384847214 0.5980272989 -0.5339402265
N 1.9180757083 0.0899363725 -0.0068481289
C 5.4826040398 0.4773770617 -1.1372424727
F 5.2758285490 1.6831551187 -1.7072547721
F 6.0194950480 -0.3309144642 -2.0883937528
F 6.4470709443 0.6425571024 -0.1926935636
Cl 3.0980581086 -3.5091226258 1.2185159845
H -5.4759092617 3.1586746287 0.6256242103
H -6.3383039798 2.0297514679 1.7020709647
H -6.7573905616 2.1136213746 -0.0276233601
H -4.5034053459 1.2453352371 -0.6285535455
H -7.3412741499 -1.9124683748 -1.6529029623
H -6.2148841453 -2.6705271170 -0.4784305166
H -7.6747683722 -1.8183905469 0.1088317584
H -1.9747922895 1.3327590850 3.0260750383
H -1.0706860814 -1.7448416604 -0.7508774284
H -3.2042196401 -0.5196329046 -0.6644076574
H 5.1880119300 -1.9745525535 -0.0129777256
H 2.9671743157 1.5991072026 -0.9488001445
H 0.1820120133 0.0785343607 2.9168028200
