38
CONF29
C -6.3845120574 -0.6607350859 1.4076255004
C -5.2401927760 -0.8387668285 0.4480128435
C -4.4481455463 0.2485377532 0.0806645464
C -3.3617534414 0.0920923983 -0.7861037072
C -3.0650364277 -1.1681585278 -1.3100421516
C -3.8478499033 -2.2550312933 -0.9333601998
C -4.9245310541 -2.1005177365 -0.0658318769
N -2.6504509352 1.2613547412 -1.1476952674
C -1.3212688198 1.4462264320 -1.3856543956
O -0.8276539817 2.5210786329 -1.6735206067
O -0.6079254653 0.2905953263 -1.2347046476
C 0.7515638652 0.3388464865 -1.5671918191
C 1.1332812414 0.4208876983 -2.8970064368
C 2.4961799415 0.3901136210 -3.1803017396
C 3.4337214696 0.2721791651 -2.1637208489
C 3.0202055529 0.1845392899 -0.8263210802
C 1.6542724417 0.2209456611 -0.5225280119
N 4.0223842313 0.0686574341 0.1443872586
C 3.8756800220 -0.0725429700 1.4980446396
O 2.8269779484 -0.1212498582 2.1160204828
O 5.1037996210 -0.1537665648 2.0674225138
C 5.0967761952 -0.3072205862 3.5051596902
H -6.7576401231 0.3664818948 1.3959283940
H -6.0654774635 -0.8867886210 2.4319873265
H -7.2088505965 -1.3372518652 1.1658287200
H -4.6744321434 1.2362364297 0.4749927531
H -2.2491375999 -1.2982313606 -2.0087786894
H -3.6198562691 -3.2351220497 -1.3412847877
H -5.5294872906 -2.9597533384 0.2091629642
H -3.1584012172 2.1317636013 -1.0781419776
H 0.3882349173 0.5084864587 -3.6794739769
H 2.8333119943 0.4540366009 -4.2096563848
H 4.4930616622 0.2449924920 -2.4007302161
H 1.2985653225 0.1603867321 0.4954423218
H 4.9744392349 0.0789359000 -0.1932508373
H 4.5790343237 -1.2272738257 3.7869478954
H 4.6127165977 0.5512917897 3.9769794667
H 6.1467634813 -0.3574854464 3.7910219461
