47
CONF2
C -0.0412709185 3.1079886434 -2.1441155896
O -1.0106975732 2.5083867319 -1.2627309664
C -1.1799215461 1.1917595433 -1.4192319176
C -2.0755242310 0.4938850136 -0.6860450291
C -2.9218468902 1.1049400772 0.3594432733
C -4.3177288160 1.0529247532 0.2770591319
C -5.1290350821 1.6281408820 1.2456282470
C -4.5558752233 2.2741135832 2.3370871102
C -3.1733023075 2.3355733425 2.4513271556
C -2.3784735760 1.7524348943 1.4751393433
O -1.0030152361 1.9486528405 1.6173671482
C -0.1521775072 0.9037796352 1.5597498063
C 1.1843036962 1.2043772743 1.3130301971
C 2.0123016453 0.1007574830 1.2107932970
N 1.6075894817 -1.1559628612 1.3510130715
C 0.3083317831 -1.2988216512 1.6264342306
N -0.6006512010 -0.3365714622 1.7505837687
O 3.3403505275 0.3333443381 0.9583984119
C 4.0704629618 -0.7136379297 0.4249009648
C 5.0367814012 -1.3380186960 1.1925071329
C 5.8188004476 -2.3373179624 0.6220874046
C 5.6336618601 -2.7109542986 -0.7072500355
C 4.6712126520 -2.0779876447 -1.4798964952
C 3.8830763412 -1.0651301166 -0.9198066919
C 2.9219672221 -0.3652738002 -1.6977235794
N 2.1607457243 0.2362303985 -2.3298309628
C -2.1176971315 -0.9549894151 -0.9602061529
O -1.3899388041 -1.5517917296 -1.7308753054
O -3.0785094578 -1.5768185277 -0.2304903952
C -3.1513979083 -2.9986615482 -0.4287790040
H -0.3998228622 3.0735017675 -3.1787106349
H 0.9190615241 2.5894852625 -2.0679097125
H 0.0560488891 4.1449329420 -1.8219626487
H -0.5541903842 0.6825983546 -2.1514510745
H -4.7616492054 0.5509765779 -0.5756183293
H -6.2080136692 1.5756772082 1.1458963646
H -5.1803232210 2.7277482905 3.0995409870
H -2.6941387762 2.8279095419 3.2902602422
H 1.5333100620 2.2165121212 1.1586725423
H -0.0446000773 -2.3199049108 1.7654764063
H 5.1571809290 -1.0415486596 2.2280169731
H 6.5738277927 -2.8321371116 1.2237011442
H 6.2433590638 -3.4941400775 -1.1434001591
H 4.5201992090 -2.3497859805 -2.5183244292
H -2.1997682457 -3.4714849277 -0.1698111154
H -3.3874991028 -3.2318357202 -1.4709188184
H -3.9455045720 -3.3438565698 0.2337731055
