46
CONF104
C -3.3827368011 -1.3174263521 -0.2255597494
C -3.9043056711 -1.0731295456 1.1705823190
C -3.8005268469 -2.1445562669 2.2313234589
C -2.9355405086 -0.8753409118 2.3349332901
C -1.4770434189 -0.8975818001 2.1262768507
O -0.8302450173 -1.7179236454 1.5036598565
O -0.9134144495 0.1817779432 2.7302394037
C 0.5094767571 0.3450800490 2.5130110666
C 0.8244266682 0.7838980205 1.1064032037
C 2.0330766424 0.3960908389 0.5315862630
C 2.3581675341 0.8284504117 -0.7499420357
C 1.4867934585 1.6328101108 -1.4812460835
C 0.2830522019 2.0142550474 -0.8970677614
C -0.0508201523 1.6024728089 0.3905447176
O 3.5373824225 0.3423546726 -1.2837176926
C 4.2837253957 1.1528544312 -2.1235431112
C 4.5059463521 2.4988098239 -1.8394385501
C 5.3268034874 3.2394944789 -2.6846112456
C 5.9261213681 2.6443033850 -3.7937911242
C 5.7010299077 1.2947323407 -4.0563083820
C 4.8755338484 0.5425802974 -3.2248133601
C -3.2123274366 -3.4565086047 1.9574142932
C -3.6278324820 -4.6039479888 2.4942594938
Cl -2.8901852440 -6.1361144138 2.0959321396
Cl -4.9347782112 -4.7423487492 3.6418352274
C -5.1428001506 -0.2051040735 1.2122508845
H -2.4702909108 -1.9124747414 -0.2461250899
H -4.1502027712 -1.8329792936 -0.8127428948
H -3.1731461026 -0.3581325215 -0.7111890375
H -4.6100707742 -2.1471692095 2.9542242668
H -3.2581131892 -0.1638306152 3.0873464856
H 1.0302583994 -0.5854372457 2.7550784103
H 0.7981491993 1.1152761796 3.2339561172
H 2.7245083949 -0.2490889513 1.0655166160
H 1.7425286012 1.9471138792 -2.4871454465
H -0.4051576603 2.6382108914 -1.4588474399
H -0.9934023984 1.9073647104 0.8329664595
H 4.0452124117 2.9566604839 -0.9704075213
H 5.5044639446 4.2881140626 -2.4669144772
H 6.5662624131 3.2284381655 -4.4465695160
H 6.1644239808 0.8215798772 -4.9163843353
H 4.6868174496 -0.5085210124 -3.4166185085
H -2.3773796650 -3.5201942765 1.2696130762
H -5.4958072100 -0.0565083811 2.2364305442
H -5.9461562644 -0.6737517460 0.6333026319
H -4.9318761952 0.7753474470 0.7713198891
