43
CONF1
C 1.7553807735 2.1327221413 -1.5557184398
C 0.5183247111 2.5399879351 -0.8298958220
N -0.0764257353 3.6711243109 -1.1740782171
N -1.1614029053 3.7835318805 -0.3518341542
C -1.2448407687 2.7706925449 0.5185899167
C -0.1592759756 1.9068698773 0.2668953966
C 0.2338348467 0.7520119576 1.0344765321
O -0.1684832253 0.5070781393 2.1745207433
C 1.2247520169 -0.2060342143 0.4307744087
C 0.9337355186 -0.9963876774 -0.6798534290
C 1.8446464818 -1.9191001558 -1.1820611923
C 3.0771058941 -2.0354835336 -0.5523730117
C 3.3985935299 -1.2805986100 0.5704624267
C 2.4581368838 -0.3848956508 1.0586083527
Cl 4.2425337800 -3.1776036400 -1.1844264690
Cl -0.6324593083 -0.8799020136 -1.4581994410
O -2.2658332629 2.7687152737 1.3895387822
C -2.8968019112 1.5037845149 1.6126035565
C -3.4899135598 0.9446850324 0.3238332907
O -3.5360084724 1.6324267421 -0.6805671336
C -4.0160537486 -0.4453851068 0.3509974064
C -4.7175632824 -0.9029636920 -0.7716461124
C -5.2204565302 -2.1940068712 -0.8038126085
C -5.0265440676 -3.0450375039 0.2837930841
C -4.3282236021 -2.6002625194 1.4021961811
C -3.8234914431 -1.3057382850 1.4389397741
C -2.1404909970 4.8366650462 -0.5366640779
H 2.5769415240 1.9111762806 -0.8686493185
H 1.5850598235 1.2364809033 -2.1606218722
H 2.0549574780 2.9468087428 -2.2185134090
H 1.5957372208 -2.5332749612 -2.0382133856
H 4.3606594457 -1.4000961984 1.0536111008
H 2.6765528154 0.2010138786 1.9457056210
H -3.7056746232 1.6987260624 2.3255104170
H -4.8519980360 -0.2246507752 -1.6071841184
H -5.7635912489 -2.5429747319 -1.6760393353
H -5.4170563251 -4.0573317475 0.2568134681
H -4.1690377962 -3.2650405287 2.2446479901
H -3.2658027964 -0.9831739560 2.3110648812
H -2.1150936395 5.5457045871 0.2968729545
H -1.8934952614 5.3517156236 -1.4647982497
H -3.1358901194 4.3887170655 -0.6047757834
H -2.1815199790 0.8139743039 2.0728003561
