66
CONF3
C 4.8200501850 -1.9019945069 -1.4845098052
C 4.9799491797 -1.3564906652 -0.0792129639
O 3.7748791022 -0.6645972346 0.3419263639
C 3.6230634106 0.6174707530 -0.0847894273
O 4.5043253122 1.2150067662 -0.6906028234
C 2.3065297249 1.1377037513 0.2773769728
C 2.0288528235 2.4635404573 0.1187015293
N 0.7911384750 2.9378130075 0.4840585041
C -0.1679472773 2.2040429851 1.1429816749
C 0.0510646816 0.8780160482 1.3752401000
C 1.2583579390 0.1575774943 0.7877555504
C 0.8416092786 -0.8517047866 -0.2876505717
C 1.0454470465 -2.2134175390 -0.0453892511
C 0.6648301338 -3.1859467353 -0.9606685171
C 0.0582942600 -2.8056395227 -2.1564828754
C -0.1610935819 -1.4602089337 -2.4125673433
C 0.2202152638 -0.4717737975 -1.4919372750
C -0.0010790742 0.9350278348 -1.8699900029
C -1.1678245503 1.5486553970 -2.1175801157
C -2.5313671993 1.0046431799 -1.9497173038
O -3.4980639036 1.5157460341 -2.4964800346
O -2.5714481149 -0.0510250138 -1.1283168535
C -3.8222856216 -0.8144585690 -0.8842655900
C -3.3405119720 -1.9346355945 0.0289536118
C -4.8357723579 0.0690206539 -0.1678637169
C -4.3489140329 -1.3807700684 -2.1970524122
C -0.8806343784 0.1230208380 2.2080764071
O -1.9550928478 0.5142755910 2.6497806900
O -0.4013930374 -1.1234778514 2.4713687234
C -1.1770423365 -1.9503506549 3.3776461951
C -0.7941279988 -1.6718919957 4.8170749670
C -1.3699727159 2.9968023273 1.5545449199
C 2.9502412276 3.5103106751 -0.4286984532
H 5.7122959285 -2.4741744633 -1.7576908961
H 4.6957132899 -1.0905624050 -2.2063866922
H 3.9512609200 -2.5645925466 -1.5424559631
H 5.8330969477 -0.6771604139 -0.0022590477
H 5.0937895037 -2.1627772984 0.6492497195
H 0.6111122590 3.9207504467 0.3453845462
H 1.7166563851 -0.4374901940 1.5821196124
H 1.5149849832 -2.5072726768 0.8884315281
H 0.8413780476 -4.2350763660 -0.7437962585
H -0.2439889901 -3.5524480580 -2.8841184189
H -0.6336733666 -1.1519296418 -3.3405404423
H 0.9004729976 1.5268269414 -2.0226408812
H -1.1596983091 2.5665761309 -2.4965739870
H -2.9355083356 -1.5189633613 0.9553890136
H -4.1784974974 -2.5920338671 0.2766746750
H -2.5616355818 -2.5231973316 -0.4657923376
H -5.6760757437 -0.5520807295 0.1581541569
H -5.2150386809 0.8573472950 -0.8196085105
H -4.3800668717 0.5206983991 0.7190220432
H -5.1762277019 -2.0621014771 -1.9758710487
H -4.7119215177 -0.5947083033 -2.8602359343
H -3.5629615904 -1.9488325597 -2.7050313787
H -0.9274859731 -2.9745178162 3.0883573350
H -2.2421336637 -1.7752561193 3.2061667984
H -1.3467939516 -2.3464604504 5.4786519412
H 0.2761437435 -1.8372650394 4.9710030494
H -1.0378244249 -0.6422099928 5.0926230324
H -1.5002218867 2.9732951899 2.6386730606
H -2.2772322763 2.5693769167 1.1203408450
H -1.2751840019 4.0359016057 1.2297985289
H 3.1711907607 3.3148099720 -1.4813355665
H 2.5005796334 4.5023385055 -0.3384141156
H 3.9059539224 3.5013955791 0.0982343274
