47
CONF145
C -1.8566915627 2.8244335988 0.6772027177
C -2.8188415305 1.6587749393 0.8950710943
C -4.2324086228 1.9837368228 0.4126204887
C -5.2224896001 0.8447581121 0.5587252581
O -4.9127609597 -0.2237330139 -0.3976198998
C -4.2741191013 -1.3111795041 0.0513342007
O -3.8978323888 -1.4956184969 1.1878047876
C -4.1319961335 -2.3438194130 -1.0710994429
C -5.2861125063 -3.3309683320 -0.9971592304
O -2.9293130928 -3.0938801461 -0.8893478368
C -1.7398855564 -2.4160398429 -0.9644125842
C -0.6177435116 -3.1150552379 -0.5117349662
C 0.6339741412 -2.5165046621 -0.5430795107
C 0.7540132799 -1.2205921089 -1.0265081444
C -0.3452388404 -0.5216862642 -1.4933071406
C -1.6038935669 -1.1180992969 -1.4636071176
O 2.0309715148 -0.6470400375 -1.1126877602
C 2.3931671266 0.2656175637 -0.1725694635
N 1.5831161715 0.5173624568 0.8440003994
C 1.9842367332 1.4204254279 1.7492734151
C 3.1962646848 2.0872309862 1.6584642889
C 4.0420826322 1.8040776249 0.5772155020
C 3.6415391867 0.8776783953 -0.3589226288
C 3.6189210754 3.0931079009 2.6761538987
F 2.7030455304 3.2631169768 3.6548471706
F 3.8365385650 4.3160738790 2.1191555682
F 4.7872871354 2.7443248862 3.2809741980
H -0.8502165951 2.5779164818 1.0295007323
H -2.1934575294 3.7190351080 1.2128339331
H -1.7869015241 3.0777381921 -0.3866719818
H -2.8542451672 1.3927204441 1.9588737426
H -2.4417017719 0.7754085018 0.3673172046
H -4.2089389313 2.3031443275 -0.6375426685
H -4.6314640308 2.8297733325 0.9883168586
H -5.2195258935 0.4260857702 1.5683727117
H -6.2331567041 1.1607152176 0.2910033089
H -4.1310180887 -1.8384299096 -2.0437452191
H -5.1797878160 -4.0763111753 -1.7891306727
H -5.2911670632 -3.8331361646 -0.0260272188
H -6.2340519778 -2.8044211150 -1.1340607241
H -0.7418623792 -4.1230237718 -0.1304361517
H 1.5117607166 -3.0447480503 -0.1861348344
H -2.4536025952 -0.5581546790 -1.8351612817
H 1.3036529339 1.6091626034 2.5750970740
H 4.9983956004 2.3077544694 0.4769618027
H 4.2544111965 0.6212888243 -1.2147535607
H -0.2256417340 0.4879743582 -1.8725086892
