49
CONF66
C -3.2934730282 0.3800290626 4.5138881851
C -3.3566399369 -0.5557654312 3.3255294531
C -2.3879330940 -0.3587915053 2.1362562293
C -3.9023179907 -0.0810386852 2.0125765339
C -4.6592908284 -1.0376131673 1.1106949628
C -4.4010314706 1.3400582755 1.8556808417
C -1.3817607109 0.6984130142 2.1060374434
O -1.4415913991 1.8352839213 2.5308371502
O -0.2368652275 0.2254968327 1.4904728615
C 0.8359761444 1.1878505653 1.3644881433
C 1.4165572676 1.4582372418 2.6865158065
N 1.9013096135 1.6535590686 3.7166628078
C 1.8643133350 0.6086083440 0.4230919278
C 2.5940379373 -0.5246382709 0.7854768493
C 3.5085858394 -1.0607585632 -0.1136941355
C 3.7056795736 -0.4794708700 -1.3635308357
C 2.9655248488 0.6486164533 -1.7103452776
C 2.0434993740 1.1995886509 -0.8232476619
O 3.1443548329 1.3203592585 -2.9002636481
C 3.4986947196 0.5981605275 -4.0332483631
C 4.5184203367 1.1145627133 -4.8239327509
C 4.8487418936 0.4646494998 -6.0111374029
C 4.1707244620 -0.6900764100 -6.3949593788
C 3.1490793243 -1.1919588555 -5.5893375444
C 2.8021066282 -0.5488780190 -4.4049721646
C -3.5563470390 -1.9952805277 3.7594480315
H -3.0937735727 1.4147812191 4.2437743948
H -2.5073591285 0.0522013350 5.2028841929
H -4.2478533486 0.3372909965 5.0512230445
H -2.0557933188 -1.2790680264 1.6673317967
H -5.7074600425 -1.0935106127 1.4269856659
H -4.6388350013 -0.6669260935 0.0804134377
H -4.2462046168 -2.0468248650 1.1126252084
H -5.4570136679 1.3803584235 2.1468345024
H -4.3330712445 1.6420843811 0.8048402650
H -3.8497230431 2.0651906946 2.4504571206
H 0.4422640190 2.1326549636 0.9743469720
H 2.4483178466 -0.9820822406 1.7590277270
H 4.0863397405 -1.9372519276 0.1609046863
H 4.4288945948 -0.8947148284 -2.0567029105
H 1.4779934766 2.0783927806 -1.1158744072
H 5.0381886084 2.0127121491 -4.5070364161
H 5.6440421981 0.8629958296 -6.6332829440
H 4.4340295012 -1.1954400990 -7.3182658737
H 2.6098585023 -2.0858411201 -5.8870104487
H 2.0018338035 -0.9286825718 -3.7780736662
H -2.7984698919 -2.2648184767 4.5025998058
H -3.4854065560 -2.7052092820 2.9348240610
H -4.5411546396 -2.1074959439 4.2278547186
