25
CONF2
C -3.4483944438 -1.1249483101 -0.3819489690
N -2.3297273496 -0.2568914482 -0.0233383878
C -1.0455355041 -0.8004443455 0.0150039290
O -0.8740347341 -1.9879612653 0.2832251710
N -0.0413775532 0.1140026545 -0.2025312778
C 1.3338034185 -0.1132962180 -0.1278197992
C 1.9082016999 -1.2095902168 0.5290534812
C 3.2892744773 -1.3400009109 0.5727502533
C 4.1200386431 -0.3948722196 -0.0193854663
C 3.5473198492 0.7020185078 -0.6636129859
C 2.1681868433 0.8421072848 -0.7227216268
Cl 4.5328876412 1.9291213529 -1.4238788901
Br 6.0084900209 -0.6333526139 0.0762400609
O -2.4207893311 1.0011378101 -0.6727327125
C -2.9030548128 1.9891962444 0.2624314090
H -3.4402101804 -1.3699723576 -1.4517778433
H -4.3768642854 -0.6092529164 -0.1276111838
H -3.3803264148 -2.0404788841 0.2058692804
H -0.3396202736 1.0106063931 -0.5634625370
H 1.2857138448 -1.9532612136 1.0039601790
H 3.7275625191 -2.1900103668 1.0833404232
H 1.7414240110 1.6987104625 -1.2338574856
H -3.8937672393 1.7132025494 0.6389716559
H -2.9691031093 2.9157653402 -0.3119310531
H -2.2000975304 2.1084653963 1.0939014699
