30
CONF3
N 5.5163771386 -0.4720518438 0.6034373679
C 4.1708971669 -0.2594998949 0.5485256044
N 3.7527797218 0.8915991834 1.1414999487
C 2.4562017717 1.1470705826 1.0657919528
N 1.9627592137 2.2577336526 1.6576365172
C 1.5622378598 0.2567530929 0.3861423628
N 0.2569256376 0.5519069034 0.2778400985
C -0.5233710123 -0.2902140632 -0.3745440397
C 0.0382100743 -1.5218493193 -0.8812610758
N -0.7628988690 -2.4522335986 -1.4894039108
N 1.3254622633 -1.8144510938 -0.7881213697
C 2.1296128317 -0.9181834102 -0.1734693718
N 3.4478087225 -1.1795568209 -0.0910286237
C -1.9542236561 0.0568916220 -0.4998558969
C -2.6558745373 -0.1031363809 -1.7028998061
C -3.9941663387 0.2652587963 -1.7942212228
C -4.6545240599 0.7932827535 -0.6889669712
C -3.9632506003 0.9642086515 0.5085121357
C -2.6257927186 0.6033375773 0.6020271073
H 5.8477508499 -1.3864462493 0.3493411896
H 6.0523112905 0.0826024304 1.2473547587
H 1.0086184847 2.5106611167 1.4605161720
H 2.6115913031 2.9528096042 1.9837722619
H -1.7500351272 -2.4282698330 -1.2910397465
H -0.3431189234 -3.3625081459 -1.5990777035
H -2.1411705030 -0.4833281539 -2.5795802848
H -4.5189390302 0.1493929495 -2.7372045990
H -5.6998757865 1.0751157978 -0.7610769624
H -4.4711170426 1.3775360857 1.3742400629
H -2.0811857439 0.7355681139 1.5307725543
