47
CONF59
C -1.4166563098 4.0774134552 0.5933154053
C -2.1976983850 2.8221560774 0.9154200215
C -2.6002021558 2.6348293554 2.3578955085
C -1.4491334498 1.7986354300 1.7679868789
C -1.5872768472 0.3532141987 1.5283925586
O -2.5999057943 -0.2684389674 1.2879346432
O -0.3542177617 -0.2377034226 1.6050730189
C -0.3419481622 -1.6601966985 1.2893806563
C 0.7757997611 -2.2294959987 2.0381939781
N 1.6615300335 -2.7144272749 2.5980792267
C -0.2010704703 -1.8800988267 -0.1998198306
C -1.3103667272 -2.2686676800 -0.9466246670
C -1.1797734111 -2.4270881860 -2.3238119501
C 0.0406122146 -2.2122456103 -2.9481464071
C 1.1440641678 -1.8237984098 -2.1877567742
C 1.0299557135 -1.6491464107 -0.8125109179
O 2.3042876376 -1.5824473083 -2.8820611749
C 3.5225571596 -1.6536699006 -2.2204380619
C 4.4138338722 -0.6070097042 -2.4189578760
C 5.6762058468 -0.6726440548 -1.8366291597
C 6.0359461792 -1.7681898897 -1.0578747206
C 5.1301826188 -2.8096884288 -0.8702081288
C 3.8701217121 -2.7635342550 -1.4558000597
C -3.8747318418 2.0227169817 2.7412610223
C -4.6842935926 2.4806207412 3.6957483792
Br -6.3249409165 1.6155877438 4.1093448223
Br -4.3253427258 4.0272870862 4.7464538548
C -3.1133826705 2.3735804890 -0.1984277872
H -0.7742023255 4.3804265976 1.4247477072
H -2.1050972242 4.9012629416 0.3767099504
H -0.7864585051 3.9196426165 -0.2885074654
H -2.2492227020 3.4079359183 3.0346040451
H -0.4551802845 2.0913992234 2.0875950487
H -1.2760189431 -2.1084912431 1.6457550686
H -2.2642680906 -2.4278454161 -0.4570875342
H -2.0368330730 -2.7299637144 -2.9160236676
H 0.1607731324 -2.3405104363 -4.0181422689
H 1.8893737250 -1.3472417617 -0.2232264482
H 4.1107943188 0.2384280110 -3.0267132039
H 6.3775222653 0.1412501340 -1.9892760246
H 7.0177007403 -1.8122852295 -0.5992365948
H 5.4047392572 -3.6688552490 -0.2672425542
H 3.1612787936 -3.5731271025 -1.3185733384
H -4.1910425252 1.1266344809 2.2187285778
H -3.6338279709 1.4428409552 0.0226717340
H -2.5356666121 2.2275260772 -1.1172073864
H -3.8585187773 3.1534233750 -0.3879413878
