41
CONF31
C -3.4295293671 -1.3246678813 2.1109138831
C -4.1799530635 -0.0439016814 1.8420502681
O -4.3265916254 0.0686789100 0.3892093139
C -4.8541732971 1.2056007369 -0.0629885089
O -5.2618695360 2.1137978909 0.6324974956
C -4.9515217060 1.2442746147 -1.5878638499
C -6.3497818335 0.8227159727 -2.0162202884
O -4.0369058539 0.3533688740 -2.2325161226
C -2.6970361465 0.5744682295 -2.0812944346
C -1.8661504106 -0.4048502596 -2.6365022874
C -0.4888046002 -0.2886095449 -2.5350791691
C 0.0403149071 0.8074700211 -1.8700245532
C -0.7588119754 1.7930492126 -1.3251135026
C -2.1442450277 1.6802542278 -1.4304157895
O 1.4472099640 0.9565412729 -1.7982345080
C 2.0943221488 0.3098580896 -0.8422925412
N 3.3798174245 0.2939938555 -0.6975300916
C 3.5646764517 -0.4944288778 0.4409059657
C 2.3177461036 -0.9147152156 0.9157323341
O 1.3533701062 -0.3879431119 0.0768107619
C 2.1209268304 -1.7108247745 2.0213857457
C 3.2982588532 -2.0880014826 2.6685773907
C 4.5681983042 -1.6964761994 2.2374921762
C 4.7170727714 -0.8891527473 1.1101250569
Cl 3.1700390802 -3.1072037918 4.0978691480
H -2.4426876767 -1.3024868883 1.6395338619
H -3.2946722917 -1.4408512306 3.1901334481
H -3.9828699140 -2.1902683377 1.7366702475
H -5.1801658324 -0.0447440452 2.2856704116
H -3.6366648337 0.8366662668 2.1973385057
H -4.7604920306 2.2795761458 -1.8975524136
H -6.4348899390 0.8969566482 -3.1028411999
H -7.0895738230 1.4822411695 -1.5569629208
H -6.5459387795 -0.2080526047 -1.7086297678
H -2.3150527752 -1.2531426420 -3.1417369967
H 0.1677383580 -1.0416849776 -2.9579529026
H -0.3109116194 2.6405892839 -0.8176293120
H -2.7623754292 2.4588037814 -0.9996564070
H 1.1405451911 -2.0190704494 2.3625097842
H 5.4424748856 -2.0252948555 2.7870473846
H 5.7010726365 -0.5837849375 0.7724461147
