50
CONF16
C 4.2375299686 -2.8980393853 -0.9412779203
C 3.0782071984 -2.4076514112 -0.1283430508
O 3.1312535534 -2.0471461258 1.0280005580
O 1.9435869954 -2.4051901332 -0.8737304591
C 0.7316668910 -1.8891036029 -0.2728962467
C -0.3265195189 -2.9649453042 -0.2418635335
C -1.5805985458 -2.6301704918 0.0834010079
C -1.8070106705 -1.1847969919 0.4033463295
C -3.2221790873 -0.6450080741 0.6525541632
C -3.1513842157 0.8426285010 1.1702297792
C -1.8975366168 1.6023187594 0.7862305293
C -1.0141857985 1.0170047658 -0.1015627848
C -1.1976107345 -0.3199792517 -0.7261021049
C 0.2471530745 -0.7026199286 -1.1076098887
O 1.0815280501 0.4970728181 -0.8895411006
C 0.3057911951 1.4113149661 -0.2335452438
C 0.7295048330 2.5803361625 0.3767005347
C -0.1814910083 3.2798851352 1.1694064363
C -1.4675190953 2.7888892561 1.4020163632
O 2.0373223651 3.0493180293 0.2188451741
C 3.0168372053 2.3896484422 0.9220497354
O 2.7785687122 1.4968264787 1.6990610208
C 4.3640415857 2.9343754719 0.5723378307
C -2.1004068573 -0.3447559343 -1.9709537519
C -3.5460097419 0.0031583084 -1.6561405938
N -4.0336637524 -0.8348209647 -0.5589761548
C -5.4596234051 -0.6234630739 -0.3233104939
H 5.0884141740 -3.0920906602 -0.2895514666
H 3.9652300858 -3.7973212741 -1.4984869654
H 4.5060322421 -2.1255521266 -1.6696335864
H 0.9627257758 -1.5378688355 0.7419745488
H -0.0213455615 -3.9796147351 -0.4784343290
H -1.2291735986 -0.9635773999 1.3146197087
H -3.6916970058 -1.2436200470 1.4420601125
H -3.2047621281 0.8331442687 2.2650352226
H -4.0481061179 1.3786993277 0.8378095901
H 0.3432362245 -0.9494804836 -2.1683240211
H 0.1558145472 4.1902143526 1.6555088954
H -2.1153054946 3.3097718368 2.1009819340
H 5.1190040353 2.4897228711 1.2189085754
H 4.5848292631 2.6968937072 -0.4732426721
H -1.6992599079 0.3511899256 -2.7164781313
H -2.0560773704 -1.3540875440 -2.3985661619
H -3.6386902873 1.0821724845 -1.4225010156
H -4.1686391619 -0.1823327904 -2.5390785505
H -6.0184157737 -0.9003459729 -1.2238604732
H -5.7960361054 -1.2607752441 0.5013422414
H -5.7194245206 0.4230557670 -0.0791187451
H 4.3682929547 4.0231072822 0.6697742319
H -2.3842364801 -3.3599513593 0.1249537886
