63
CONF40
C 2.7135796041 0.1452824196 2.4005469946
C 1.5139606596 -0.7364452286 2.7310796684
N 0.7153389668 -1.0157237350 1.5320155453
C 1.5277792849 -1.7445972213 0.5516304541
C 2.7281884535 -0.9092942960 0.1149594422
C 3.5704836059 -0.5363182174 1.3342413001
N 4.7480277802 0.2537787034 0.9769433152
C 4.7990520855 1.5169206593 0.3925185397
C 3.8135426083 2.4036749398 -0.0246814740
C 4.2247052289 3.6180774693 -0.5825144625
C 5.5762797825 3.9382870932 -0.7202434513
C 6.5713265159 3.0507359904 -0.3031215349
C 6.1629549140 1.8482584449 0.2490964068
N 6.8867724704 0.7811868550 0.7477545560
C 6.0420681387 -0.2156273880 1.2019805507
O 6.3639385839 -1.2911539129 1.7007848960
C -0.4922720699 -1.7642563799 1.9037124026
C -1.4732695639 -1.9813548418 0.7527555173
C -1.8252770400 -0.6977928709 0.0055520190
C -2.9141776295 -0.9237055702 -1.0562313664
C -4.2427698001 -1.2958581381 -0.4171925096
C -4.9553372369 -0.3569239665 0.3356423784
C -6.1604050206 -0.6871458909 0.9464301327
C -6.6435370242 -1.9760500683 0.7868373859
C -5.9765504850 -2.9362928686 0.0486517070
C -4.7691833126 -2.5815527745 -0.5520718802
F -7.8225848744 -2.3073183526 1.3790575069
C -3.0961683466 0.2466611502 -2.0096179227
C -3.6806807061 0.0116161334 -3.2595770740
C -3.9018348171 1.0435953645 -4.1646215897
C -3.5285424943 2.3255115462 -3.7949804980
C -2.9488627249 2.6077063017 -2.5723060981
C -2.7358275627 1.5553605549 -1.6816597965
F -3.7356755112 3.3434670609 -4.6733250938
H 3.3100195400 0.3142055055 3.3038092925
H 2.3587416971 1.1179693343 2.0437407070
H 0.8761178589 -0.2310811386 3.4651792832
H 1.8694340550 -1.6782787410 3.1993627679
H 1.8787013802 -2.7117829522 0.9690346067
H 0.9160196741 -1.9727488984 -0.3264880208
H 2.3692986266 -0.0082224667 -0.3943643750
H 3.3368609766 -1.4780059565 -0.5965594306
H 3.9780975903 -1.4604027405 1.7627789583
H 2.7591325173 2.1774332539 0.0716015157
H 3.4703691882 4.3237719092 -0.9145595939
H 5.8618221602 4.8893176671 -1.1574475082
H 7.6245287219 3.2897508308 -0.4057383857
H 7.8905252415 0.7053649104 0.7892604025
H -0.9984850216 -1.1869628948 2.6887637324
H -0.2305733848 -2.7471856633 2.3456310851
H -1.0870939624 -2.7239496154 0.0429861223
H -2.3819568591 -2.4212222175 1.1825487880
H -2.1526544723 0.0632885780 0.7259989159
H -0.9299356179 -0.3002483257 -0.4859852223
H -2.6028976864 -1.7821000686 -1.6660230283
H -4.5685731813 0.6524776476 0.4443002441
H -6.7193326460 0.0358689695 1.5308221245
H -6.3908252993 -3.9336498640 -0.0521778603
H -4.2285442136 -3.3234264122 -1.1330799479
H -3.9693425820 -1.0007421054 -3.5301519756
H -4.3490396082 0.8636575441 -5.1363231774
H -2.6679375032 3.6255002433 -2.3236707928
H -2.2775162292 1.7737322326 -0.7232943055
