45
CONF87
C 3.7092817661 3.7873030253 0.3002997557
C 4.3206128199 2.3915573237 0.1720449852
C 3.4291080278 1.3931255451 -0.5734168562
C 2.1094529602 1.0857826174 0.1346013633
C 1.2927607230 0.0148703954 -0.5857465767
C -0.0395733638 -0.3213450025 0.1071358827
C -0.7406391161 -1.4934346048 -0.6018652698
C -2.0252338573 -1.9477591375 0.0888954611
C -2.7484937413 -3.0857623017 -0.6394571133
C -1.9293755816 -4.3694147005 -0.8205896371
C -1.4248414267 -4.9632633723 0.4942198422
C -0.9340341723 0.8961115323 0.2075459590
C -1.4076431874 1.5362533556 -0.9440492588
C -2.2268444361 2.6579233570 -0.8536688650
C -2.5892990235 3.1649142486 0.3940567730
C -2.1242942659 2.5385440479 1.5474020330
C -1.3045569591 1.4148848638 1.4506500806
H 4.4119697053 4.4831229675 0.7700050208
H 2.7990372349 3.7770968063 0.9080355987
H 3.4477748275 4.1882310240 -0.6859687456
H 5.2807770508 2.4682619260 -0.3533687094
H 4.5454317586 1.9952290902 1.1714814415
H 3.2157325261 1.7804207557 -1.5801024933
H 3.9832922183 0.4549867013 -0.7128749925
H 2.3160010107 0.7539548060 1.1627693574
H 1.5079609477 1.9991617852 0.2190052237
H 1.8859297007 -0.9067131726 -0.6600641127
H 1.0898608634 0.3383230856 -1.6163389028
H 0.1898132662 -0.6433150588 1.1332219628
H -0.9626076526 -1.2112306028 -1.6410077215
H -0.0290552713 -2.3271178874 -0.6519997376
H -1.7932313617 -2.2471031942 1.1200115674
H -2.7104281719 -1.0942237232 0.1683530594
H -3.0674495537 -2.7259765536 -1.6271588063
H -3.6656539832 -3.3298276397 -0.0862337523
H -1.0783494597 -4.1790682441 -1.4862751818
H -2.5559419858 -5.1088879034 -1.3348440778
H -0.9236588803 -5.9219762974 0.3267469790
H -2.2546736333 -5.1336098523 1.1901795744
H -0.7089000291 -4.2974029903 0.9870388071
H -1.1340250271 1.1541893502 -1.9238236355
H -2.5838642956 3.1392380763 -1.7596270006
H -3.2279711314 4.0400514346 0.4647138019
H -2.3991188845 2.9239724489 2.5249811003
H -0.9450379705 0.9299227702 2.3549606197
