56
CONF1018
C -1.1785079472 -4.5139653265 -0.9504185629
C -0.3593422580 -3.6615064158 0.0195223022
C 0.0364970037 -4.4084801080 1.2927621535
N -1.0363834753 -2.3885206239 0.3274307141
C -2.2958938462 -2.2495072934 0.8750370435
C -3.1726314188 -3.1933057917 1.4212286267
C -4.3842137181 -2.7391632119 1.9258384429
C -4.7279713218 -1.3751893801 1.9013502312
C -3.8635870801 -0.4366850341 1.3615587920
C -2.6403967891 -0.8687214845 0.8286033981
C -1.5435774327 -0.1762568548 0.2310476223
C -0.5821153120 -1.1323623932 -0.0751208118
C 0.7070192667 -0.9554833992 -0.7210019466
C 0.9473294228 -0.0608116990 -1.6904648586
C 2.2894388076 0.1427729563 -2.3178286381
C 2.8067464856 1.5661046287 -2.1220994223
C 3.1226097724 1.8896051732 -0.6654257480
C 3.5283450374 3.3445453099 -0.5003680693
C 3.6731423269 3.7267333258 0.9490387139
O 3.0024712330 3.2857219921 1.8595668612
O 4.6277911494 4.6639053930 1.1316986136
O 4.2291088078 1.1060777332 -0.1762436045
O 2.2050997894 -0.0540115746 -3.7462536295
C -1.4429500452 1.2806067176 0.0726485543
C -0.3967677786 1.9985314316 0.6674474663
C -0.2900594045 3.3769444635 0.5181624095
C -1.2598528468 4.0309261804 -0.2233064826
C -2.3256522361 3.3698107282 -0.8086840858
C -2.4084347056 1.9884781156 -0.6553090685
F -1.1656396175 5.3796602370 -0.3747015380
H -0.5831646157 -5.3787826004 -1.2575225443
H -2.1006588593 -4.8835888507 -0.4959017443
H -1.4371694011 -3.9366387962 -1.8429209680
H 0.5602666181 -3.3826237563 -0.4998724024
H 0.6362622086 -5.2833815237 1.0253087944
H -0.8353181506 -4.7569074962 1.8519265365
H 0.6331772556 -3.7651196865 1.9458039941
H -2.9314567111 -4.2474909684 1.4668557002
H -5.0775312951 -3.4562751959 2.3540822732
H -5.6810627378 -1.0583944316 2.3131685852
H -4.1248494231 0.6173545739 1.3449388116
H 1.5326080624 -1.5817376092 -0.3829233002
H 0.1435020192 0.5668368429 -2.0737587473
H 3.0077972745 -0.5739180501 -1.8899169831
H 3.7122121890 1.6981663897 -2.7270131476
H 2.0474064917 2.2666929508 -2.4928408967
H 2.2385627600 1.6977560558 -0.0451287501
H 4.4567377142 3.5528991007 -1.0405332176
H 2.7508685418 3.9950273274 -0.9219353411
H 4.6415613974 4.9009722729 2.0751993272
H 3.8944104691 0.2390700720 0.0820007993
H 1.8445967052 -0.9383302379 -3.8923335705
H 0.3405689810 1.4678940200 1.2613715605
H 0.5212232089 3.9324664291 0.9765496651
H -3.0657227237 3.9231955247 -1.3767074755
H -3.2264494198 1.4484035512 -1.1219537414
