51
CONF64
C 2.1142920377 -2.6627538285 -0.7388603273
C 2.4595758292 -1.2052094863 -0.9025715378
C 1.4776050736 -0.2289917749 -0.6467404184
C 1.7540564496 1.1217592749 -0.8405436296
C 3.0052709203 1.5205774765 -1.2968444370
C 3.9830859478 0.5714578408 -1.5456264994
C 3.7301686462 -0.7906020642 -1.3417404076
C 4.8347627134 -1.7477903609 -1.5947474916
C 5.4746345283 -1.7716056292 -2.8386912763
C 6.5357545749 -2.6388412578 -3.0763147131
C 6.9794995074 -3.4930717670 -2.0714718515
C 6.3560273847 -3.4728442869 -0.8267154262
C 5.2930824375 -2.6085971760 -0.5909950714
C 0.1227537226 -0.6921981957 -0.1870092740
O -0.6860410001 0.4483927151 0.1680694147
C -1.9534447874 0.1563838179 0.5520724838
O -2.3981976692 -0.9691897573 0.6016023360
C -2.6851180856 1.4010402102 0.8771817858
C -3.9385078761 1.2888972592 1.7405862216
C -4.0586308108 1.6874447839 0.2828095472
C -4.7063510378 0.6908462920 -0.6496023432
C -4.3458600180 3.1290261672 -0.0739994440
C -4.1319292052 2.2578014701 2.8230981728
C -4.9358184394 2.1017790244 3.8792199446
C -5.7897204274 0.8705086712 4.0985179248
F -5.0277347715 -0.2043089896 4.4209658263
F -6.4643880823 0.5464638837 2.9667106203
F -6.6975938023 1.0268312259 5.0721288653
Cl -5.0301699742 3.3177854340 5.1262262832
H 2.0499747776 -2.9488473754 0.3185688103
H 2.8602300339 -3.3042891824 -1.2082501995
H 1.1427098174 -2.8917950093 -1.1886664685
H 0.9882785923 1.8596512199 -0.6367592285
H 3.2173889334 2.5741704406 -1.4474069122
H 4.9706612620 0.8752241395 -1.8787328384
H 5.1225166051 -1.1119013414 -3.6262210030
H 7.0147463351 -2.6494304426 -4.0503421642
H 7.8080668467 -4.1691311121 -2.2557674985
H 6.7031970645 -4.1279368935 -0.0338821706
H 4.8200272337 -2.5833704448 0.3861119341
H 0.1972679292 -1.3544841179 0.6839281570
H -0.3957791299 -1.2573666317 -0.9723448087
H -2.0561581333 2.2721791415 1.0297935228
H -4.2292019836 0.2616854982 1.9344297815
H -5.7908650228 0.8423725757 -0.6453909580
H -4.3481999482 0.8426590749 -1.6742556373
H -4.4967061707 -0.3392517468 -0.3594835216
H -3.8171239436 3.8387884430 0.5658516319
H -5.4193347408 3.3305772903 0.0095834164
H -4.0451990332 3.3216578780 -1.1090143307
H -3.5675604969 3.1843937208 2.7715355145
