55
CONF12
C -2.8777261399 1.0504519556 -1.8108753179
C -2.5001310761 0.6432926822 -0.3601628720
C -3.0851626916 1.6863403629 0.6111451175
C -4.6104966628 1.6796415005 0.6600879459
C -5.1284177369 0.3119636330 1.0245658816
O -6.2063121530 0.1512025342 1.6031410133
C -4.3193241626 -0.8185744643 0.5924593416
C -3.1556405729 -0.7011071677 -0.0891495030
C -2.5330315631 -1.9186825334 -0.6972707272
C -1.0223778704 -1.9494946025 -0.4926438930
C -0.3880405672 -0.6690902722 -1.0435539468
C -0.9174336154 0.5868399532 -0.2976885113
C -0.2248773741 0.6889375100 1.0736941942
C 1.3039646217 0.6808018544 0.9164631016
C 1.8949523376 -0.5440430013 0.2173062702
C 1.1434620044 -0.7513188121 -1.1189896169
C 1.7565311510 0.2771167247 -2.0994683475
C 3.1451392795 0.6541803716 -1.5358236090
C 3.3425264398 -0.2716064463 -0.3221927085
C 4.3063475119 0.2673213261 0.6959777053
O 4.2693824883 1.4131103298 1.1252460770
C 5.3867332222 -0.6664409712 1.1872737171
O 6.1903723625 -0.0793350202 2.1865070426
C 1.9055900298 -1.7579435896 1.1479927938
O -0.5515383867 1.9539238338 1.6879125717
H -2.4576139142 0.3694466219 -2.5531096725
H -2.4968578707 2.0570674258 -2.0113566550
H -3.9617519662 1.0545539315 -1.9486386750
H -2.7122923960 2.6808433381 0.3476181593
H -2.7236743380 1.4706804848 1.6175527784
H -4.9856509992 2.4048928154 1.3885577289
H -5.0552711970 1.9472843870 -0.3082104329
H -4.7500990002 -1.8039119945 0.7596462484
H -3.0133437555 -2.8193670842 -0.3031974576
H -2.7391021848 -1.8945049473 -1.7786255422
H -0.5975037819 -2.8204004148 -1.0043937439
H -0.8171470342 -2.0735336542 0.5740602897
H -0.7205005388 -0.5909644361 -2.0874795645
H -0.5868340642 1.4798850344 -0.8471657620
H -0.5578948379 -0.1285520321 1.7325376972
H 1.5573638858 1.5911660809 0.3606401543
H 1.7497782715 0.7895293559 1.9139895233
H 1.3974043637 -1.7576399641 -1.4795836898
H 1.1226442755 1.1654195568 -2.1811433284
H 1.8261823467 -0.1540372402 -3.1020654432
H 3.9497637195 0.5185419722 -2.2634510866
H 3.1697941028 1.6979170202 -1.2112708287
H 3.7214896939 -1.2445365105 -0.6640372772
H 5.9870638172 -0.9517741459 0.3054560593
H 4.9175156818 -1.5920402468 1.5550604565
H 5.8828619140 0.8416846560 2.2547309887
H 2.2432794724 -2.6551664520 0.6177286843
H 0.9221984561 -1.9636243261 1.5734699784
H 2.5824817050 -1.5833502680 1.9919616007
H 0.0212244134 2.0470035244 2.4600600011
