28
CONF82
O -1.4746724237 2.2957488016 -0.7277645610
C -2.4269561981 1.3338760638 -1.1905009757
C -2.0577896157 -0.0312324806 -0.6631747007
O -0.8516523832 -0.4949523486 -1.3036660332
C -0.1071002476 -1.3017422308 -0.4055498424
C -0.9277370970 -1.4055845874 0.8812384076
C -1.7667889113 -0.1346236259 0.8405983710
O -2.9446431080 -0.2775643716 1.6232549841
N 1.2228333915 -0.6696757371 -0.1799164165
C 1.4473660960 0.6673552223 -0.3796181262
C 2.6468571008 1.2459617900 -0.1452294418
C 3.7609665234 0.4615103568 0.3334714875
O 4.8878659682 0.8586710152 0.5801003236
N 3.4329785976 -0.9018767164 0.5129812248
C 2.2166074447 -1.5200237980 0.3094603267
O 2.0128633746 -2.7019584006 0.5381174929
H -1.6250601914 3.1230640380 -1.1957119476
H -3.4398084413 1.5737851513 -0.8287869014
H -2.4535757199 1.2947548888 -2.2885149391
H -2.8868943873 -0.7194447300 -0.8959361509
H 0.0983596776 -2.2762806255 -0.8553218461
H -0.3018678689 -1.5067794584 1.7684888877
H -1.5973874426 -2.2707258370 0.8268013573
H -1.1772672998 0.7325134389 1.1663258922
H -3.2496068618 0.5990082149 1.8786281333
H 0.5930221335 1.2243169177 -0.7485933530
H 2.8004815946 2.3019383988 -0.3163331112
H 4.1686068823 -1.5000387364 0.8651514419
