54
CONF241
C 3.1504229427 3.3145360301 0.4181220373
C 2.1071296314 2.3024021519 -0.0787152869
C 2.6166362906 0.8967364398 0.0255209516
C 2.4720612279 0.1192699800 1.1588893134
C 2.9177570409 -1.2237842514 1.1473213567
N 3.5927097619 -1.6802597760 0.0758263090
C 3.7393449860 -0.8379607928 -0.9447991706
N 3.2718320476 0.4018774201 -1.0528454093
N 2.6889746043 -2.0655503706 2.1803674161
C 2.8227723344 -3.5158200323 2.0727242197
C 1.8949177911 -4.1521015040 1.0354060188
O 0.5239915553 -3.7715752499 1.2483233131
C 0.0868225869 -2.6040130136 0.6469561815
C -0.6992557963 -1.7321444692 1.4125208582
C -1.1912454306 -0.5503556207 0.8206597868
C -0.8722981086 -0.2402314417 -0.5130826723
C -0.1074897962 -1.1473527299 -1.2498315695
C 0.3618928721 -2.3256846555 -0.6907504752
C -1.3573116386 1.0134520105 -1.2006114215
C -2.7722727357 0.8390292583 -1.7391724735
O -3.1719798443 2.0525179625 -2.3705381423
C -4.4866974130 1.9602109517 -2.9265707826
C -4.8251816481 3.2831680269 -3.5797835404
C -2.0309707927 0.3687771121 1.6683654742
C -0.9998535540 -2.0424847746 2.8525333002
Cl 1.7045861338 0.7552668474 2.6069346342
H 3.3898351946 3.1439036042 1.4719531010
H 2.7683221595 4.3338150684 0.3132360548
H 4.0737486996 3.2302986285 -0.1626562128
H 1.8791485200 2.4923647577 -1.1315666558
H 1.1808430384 2.4095478035 0.4930092614
H 4.2987240501 -1.2205565079 -1.7993130762
H 2.0601073631 -1.7305140469 2.8943055257
H 2.6023068109 -3.9205321130 3.0641206955
H 3.8551928485 -3.7840231360 1.8192494800
H 1.9330417094 -5.2393158550 1.1521345136
H 2.2209738685 -3.9007012031 0.0241823090
H 0.1258958957 -0.9234426521 -2.2876135822
H 0.9436152749 -3.0143830260 -1.2927225820
H -0.6924591810 1.2420903649 -2.0405168012
H -1.3315480840 1.8779859032 -0.5292824539
H -2.7949746870 0.0068636418 -2.4628144187
H -3.4699583945 0.5881890426 -0.9224898888
H -5.2094789228 1.7214692786 -2.1293879550
H -4.5193492660 1.1409763424 -3.6631087364
H -4.8031563045 4.0936421168 -2.8450581506
H -4.1118454484 3.5138013814 -4.3766699031
H -5.8278013065 3.2387735134 -4.0152714382
H -1.4523858775 0.7505010648 2.5180893167
H -2.8915273352 -0.1644304566 2.0872444838
H -2.4072789995 1.2246265793 1.1094411158
H -0.4184915429 -2.8968154071 3.1997241029
H -0.7765604534 -1.1829357097 3.4932378700
H -2.0622354830 -2.2759740729 2.9947736922
