47
CONF105
C 5.2842075820 1.6848911132 1.5207801420
C 4.3296932560 1.6301092979 2.7218637776
C 4.9588319339 0.8520186135 3.8842477708
C 2.9877176372 1.0566363148 2.3166549473
C 2.8646333967 -0.2736486673 1.9026987306
C 1.6410734790 -0.7975120629 1.4962180455
C 0.5309737753 0.0358245277 1.4913021177
C 0.6073385684 1.3529467961 1.9141713067
C 1.8385216739 1.8518742430 2.3276573617
O -0.7324364117 -0.4149965592 1.0674945779
P -0.9094127799 -1.3224483840 -0.2433337058
O -0.6338464956 -2.7699360943 -0.1556372534
O 0.0165289604 -0.6623322670 -1.3845489287
C 0.2931679805 0.7106864925 -1.4921448793
C -0.7132108586 1.6670354067 -1.4807333137
C -0.3541444758 3.0093130038 -1.5937201455
C 0.9818885692 3.3777172314 -1.7258327718
C 1.9717377719 2.3963012731 -1.7545841315
C 1.6314201855 1.0530035686 -1.6371936849
O -2.4376485687 -0.9229515704 -0.5409865731
C -3.1757245158 -1.6891851368 -1.4654701062
C -3.1259490427 -1.3519325723 -2.8103633380
C -3.9022090143 -2.0823042066 -3.7076243858
C -4.7072362959 -3.1250359004 -3.2545968808
C -4.7396786820 -3.4420244893 -1.8979042259
C -3.9687277177 -2.7223333212 -0.9886493948
H 5.5018471639 0.6757579381 1.1537199752
H 6.2320686959 2.1530871180 1.8065528197
H 4.8479861589 2.2601660705 0.6977604355
H 5.8955622078 1.3268825141 4.1936806267
H 4.2860525635 0.8189264695 4.7468463406
H 5.1863897979 -0.1777266617 3.5886947222
H 3.7352767277 -0.9225674250 1.8921330441
H 1.5580300164 -1.8322976083 1.1797734579
H -0.2798064756 1.9768438823 1.8978611879
H 1.9069998022 2.8867048931 2.6516229291
H -1.7526562979 1.3774774918 -1.3788700026
H -1.1305302874 3.7674812255 -1.5791067758
H 1.2513771738 4.4252111467 -1.8108716156
H 3.0152728894 2.6745551786 -1.8617215087
H 2.3856171723 0.2735944937 -1.6398873632
H -3.8756973550 -1.8310711758 -4.7629813662
H -5.3102584737 -3.6896913939 -3.9579917949
H -5.3660098350 -4.2534245784 -1.5415682152
H -3.9759456904 -2.9528475087 0.0711457356
H 4.1511456160 2.6585203494 3.0596693337
H -2.4958846468 -0.5339217149 -3.1435337450
