46
CONF211
C -1.6344347440 -1.3641157943 2.6156788293
C -1.8689441204 -0.0996062861 1.8242649005
O -1.2375227702 -0.2307896913 0.5086387284
P -2.1220866958 -0.2996261356 -0.8299442386
S -3.5984685184 -1.5811914636 -0.8461552414
N -2.5783854843 1.2374597666 -1.1747726394
C -1.6391472316 2.3838249035 -1.2341435279
C -2.2725242187 3.5819881718 -0.5329011605
C -1.2560401774 2.7033178176 -2.6769231085
O -0.9017351816 -0.6166731995 -1.8814638185
C -0.0736167397 -1.7209580489 -1.7119638764
C -0.4173841483 -2.9118213444 -2.3381088424
C 0.4063909416 -4.0244517648 -2.1953991005
C 1.5588676063 -3.9481454698 -1.4172132230
C 1.8906566994 -2.7547643724 -0.7865387466
C 1.0874996563 -1.6196434758 -0.9366300252
C 1.5063299171 -0.3237910541 -0.3333767030
O 1.4772367030 0.7431980675 -0.9178177344
O 1.9514900605 -0.4977568615 0.9189846027
C 2.4595215552 0.6916888212 1.6267456466
C 2.2528374210 0.4101910150 3.0997196499
C 3.9140518127 0.8997930156 1.2494778821
H -2.1273447121 -2.2160474172 2.1392991128
H -0.5637035996 -1.5725071772 2.6977466995
H -2.0423968650 -1.2417904549 3.6240184999
H -2.9366605410 0.1104801616 1.7006064157
H -1.3920104133 0.7676023725 2.2896880911
H -3.4369958167 1.3452382429 -1.7011432494
H -0.7404779442 2.0804812649 -0.6851282511
H -1.5854177773 4.4333004013 -0.5501941290
H -3.1957705111 3.8769665400 -1.0442073885
H -2.5101910530 3.3434741284 0.5077086916
H -2.1428379651 2.9985378056 -3.2491252927
H -0.5419315332 3.5324727326 -2.7006764395
H -0.7990857162 1.8357215188 -3.1603021410
H -1.3270262895 -2.9543477835 -2.9265191767
H 0.1412426186 -4.9528851817 -2.6905996685
H 2.2000077234 -4.8155993524 -1.3028279220
H 2.7906576496 -2.6847105263 -0.1851993586
H 1.8521777336 1.5433497827 1.3054459389
H 2.6051139881 1.2659837621 3.6826365597
H 1.1940101308 0.2512537271 3.3219822565
H 2.8186483875 -0.4751616629 3.4064852136
H 4.5096780436 0.0295170644 1.5430966993
H 4.0233125824 1.0619623946 0.1740922397
H 4.3024094417 1.7785814422 1.7729583505
