55
CONF39
C 6.5009140449 0.9442770305 -3.7891755896
O 5.2730503332 1.6087282639 -3.5119570111
C 4.2456023222 0.8558114684 -3.0250797951
C 3.0565336169 1.5470564059 -2.7699121164
C 1.9532748175 0.8777865302 -2.2740466784
C 2.0057305110 -0.4977012266 -2.0153007310
C 3.1924925910 -1.1739382633 -2.2827150035
C 4.3142206863 -0.5161405881 -2.7824086832
C 0.8416744811 -1.2610488515 -1.4438198314
S -0.6510994184 -0.9636854557 -2.5162506318
C -1.9844054565 -1.4969931968 -1.4563788584
C -2.7472839691 -2.6022565542 -1.8433202575
C -3.8670206334 -2.9851343525 -1.1159173975
C -4.2160719967 -2.2772839309 0.0306977789
C -3.4566702389 -1.1909430688 0.4432982136
C -2.3453827381 -0.7798656060 -0.2972070175
N -1.6243948005 0.3658131946 0.1149717692
C -2.3393005697 1.6122486816 0.4468947778
C -2.2703474474 1.9569806011 1.9354348670
N -3.1167687937 1.0964987074 2.7625902837
C -4.4976100342 1.5654360665 2.7799483399
C -2.5919886106 0.9720066207 4.1204420991
C -0.2553180738 0.4180918602 0.1715172373
O 0.3527731458 1.4527909230 0.4063137149
C 0.4771311962 -0.9211453319 0.0105687278
O 1.7128421422 -0.8784661232 0.7386813196
C 1.5809169872 -0.7026280601 2.0800436660
C 2.9214508447 -0.5017273427 2.7194838453
O 0.5138949548 -0.6943955093 2.6488784523
H 6.9242976211 0.4923393835 -2.8824598615
H 7.1793043979 1.7137527223 -4.1600802373
H 6.3725215043 0.1711087437 -4.5581513757
H 3.0216977195 2.6128303406 -2.9674594712
H 1.0417677937 1.4301034784 -2.0795882680
H 3.2535516822 -2.2416943703 -2.0910244816
H 5.2177826528 -1.0804061679 -2.9760606194
H 1.0783007698 -2.3299889061 -1.4792445267
H -2.4547340074 -3.1479657693 -2.7340488009
H -4.4549017082 -3.8382105914 -1.4379202414
H -5.0749802134 -2.5824858810 0.6198191887
H -3.6806978899 -0.6545298025 1.3617033109
H -3.3710819054 1.4993761693 0.1039254431
H -1.8759566751 2.4237251392 -0.1251350278
H -1.2305048606 1.8480607710 2.2544498841
H -2.5331501702 3.0266171429 2.0578228514
H -4.8940243123 1.6309711311 1.7605012087
H -4.6027683835 2.5637055376 3.2491136469
H -5.1251211505 0.8596068962 3.3353218752
H -1.5822606916 0.5527971670 4.0845494212
H -2.5578941913 1.9401756430 4.6574790281
H -3.2262818728 0.2897443513 4.6966337424
H -0.1500334501 -1.7181899066 0.4236187741
H 3.2340344108 0.5296597480 2.5252921094
H 2.8414096284 -0.6582775896 3.7945049738
H 3.6708815717 -1.1629969234 2.2801615772
