39
CONF508
C 7.5023422588 1.5617796091 -2.0147117796
C 6.9886695219 1.0279635829 -0.6787266365
C 5.7078147856 0.2080441845 -0.8369998763
C 5.2187381320 -0.4545153410 0.4544415396
C 4.8857557908 0.5010175192 1.6120727575
C 4.3614959543 -0.2472921977 2.8489466018
C 5.3780583262 -1.2024716255 3.4731515970
C 3.9257326169 1.6008842416 1.1982328294
O 2.6772343778 0.9661130284 0.7582829470
C 1.7328259765 1.7828444274 0.3012503607
O 1.8017527922 2.9934048998 0.2645520088
C 0.5011228332 1.0301808977 -0.1126273534
C -0.6615043325 1.3043110297 0.5973242745
C -1.8431525868 0.6510011851 0.2841790104
C -1.8886696754 -0.2770391313 -0.7610510288
C -0.7218049246 -0.5332156301 -1.5009660378
C 0.4715670412 0.1204904702 -1.1697054944
Br 2.0494006077 -0.1459677579 -2.1941962798
Br -0.7633705838 -1.7582097467 -2.9449469149
Br -3.5085051087 -1.1616497756 -1.1757982834
Br -3.3743722463 1.0698588262 1.3275857674
H 8.4141921304 2.1537033321 -1.8871618628
H 7.7273841425 0.7401106058 -2.7038359733
H 6.7511712755 2.2007201467 -2.4927496785
H 7.7588327394 0.4033295775 -0.2057577751
H 6.8143197826 1.8699967921 0.0028923846
H 4.9198194401 0.8428956743 -1.2635876266
H 5.8859569337 -0.5824665254 -1.5785959033
H 5.9917942531 -1.1530273732 0.7953976643
H 4.3284318583 -1.0583900683 0.2354835931
H 5.8036123974 1.0293998048 1.9099490282
H 3.4535147075 -0.8003418359 2.5772103974
H 4.0624252321 0.4959281378 3.5994243991
H 5.6106133840 -2.0418333088 2.8115700707
H 6.3155341584 -0.6815162049 3.6993458565
H 4.9916809717 -1.6187748646 4.4086016769
H 4.3080216487 2.2029610415 0.3693407001
H 3.6878956486 2.2638521974 2.0364016612
H -0.6355738325 2.0260868917 1.4051341834
