52
CONF252
C 1.3699585093 3.3938609224 0.8146447590
C 1.8051497891 2.2167810090 -0.0287411228
C 3.1571398656 2.4326844042 -0.7119531828
C 3.4970188523 1.2530838743 -1.6171171987
C 2.3506293439 0.9852392939 -2.6076878335
C 0.9714690957 0.9905644804 -1.9437356782
O 0.7798968121 2.0415409251 -1.0444754398
O 0.8199469535 -0.3063157216 -1.3130206373
C -0.4541049935 -0.6195905102 -0.9147722584
C -0.7308738944 -0.8144867015 0.4168078495
O -1.9874794932 -1.1534816832 0.8243161987
C -3.0127085555 -1.2904663062 -0.0638901988
C -4.2579806077 -1.5917019568 0.4652508385
C -5.3134988912 -1.7622657868 -0.4318216909
C -5.1380423885 -1.6442275272 -1.8155789000
C -3.8824327223 -1.3450490516 -2.3180986973
C -2.7817889966 -1.1521159210 -1.4378004123
C -1.4666402975 -0.8299782952 -1.9268403339
O -1.2143959324 -0.7339569755 -3.1583906139
O -3.7023656549 -1.2291270604 -3.6442072537
O -6.5678432389 -2.0561869843 -0.0085737613
C 0.1913639831 -0.6980704149 1.5380255366
C 1.5680389240 -0.9038377821 1.3587303982
C 2.4492660432 -0.6867702631 2.4004950589
C 1.9723090524 -0.3211161242 3.6693839656
C 0.6018352842 -0.1674199600 3.8655594296
C -0.2831831682 -0.3451054654 2.8118801796
O 2.8243070275 -0.1017530296 4.7024007442
O 3.8077498077 -0.7948375108 2.2652332315
O 2.2976594892 2.0331393605 -3.5788767838
O 3.7496359761 0.1196440461 -0.7690704745
O 4.1936851226 2.6610250002 0.2406358386
H 2.0899605461 3.5601304537 1.6189048924
H 1.3059226386 4.3009388731 0.2042975656
H 0.3901494631 3.1956314169 1.2585687477
H 1.8547757482 1.3101737003 0.5866960178
H 3.0952642971 3.3344822148 -1.3314731478
H 4.4045795846 1.4922676153 -2.1915509234
H 2.4978298576 0.0076186903 -3.0885209655
H 0.1997733636 1.1136635654 -2.7080839481
H -4.3926656506 -1.6934764976 1.5364325996
H -5.9779936085 -1.7860985852 -2.4858035206
H 1.9619448222 -1.1911443350 0.3938141975
H 0.2448516205 0.1228128219 4.8482894650
H -1.3421677380 -0.1842097131 2.9731932909
H 3.7335612240 -0.2090966582 4.3838163141
H 4.0343220356 -0.7210445002 1.3242621371
H 3.0984964066 1.9816362966 -4.1161549476
H 4.1841033879 -0.5589904531 -1.3007583696
H 4.3960669772 1.8079622609 0.6505867292
H -6.5848636106 -2.1136587328 0.9569820607
H -2.7311602194 -1.0195081898 -3.7670003697
