47
CONF3
C 0.6378912451 0.7074216795 -3.0259987191
C 0.1424289630 -0.5330229880 -2.3401903542
C 0.1197140743 -1.7569751740 -3.0131071725
C -0.3420977631 -2.9085188476 -2.3841960378
C -0.7902334617 -2.8551182926 -1.0694585667
C -0.7778259020 -1.6535020731 -0.3581417796
C -0.3011477004 -0.5046656673 -1.0087053457
N -0.2881271611 0.7400420419 -0.2900381899
C -1.5428738371 1.4864176765 -0.0726788512
C -2.6523969958 1.0671662464 -1.0375147408
C -1.2999471740 2.9798095700 -0.2789607704
O -0.6642843983 3.4657061478 -1.1906570998
O -1.9955348227 3.6920953595 0.6206316493
C -1.9372154924 5.1316794836 0.4575739699
C 0.7904878523 1.1571114852 0.4352089860
O 0.7104377746 2.1444750314 1.1743081902
C 2.0836075679 0.3639583991 0.3222744580
C 2.1295889410 -0.7633469112 1.3321772931
C 2.2251636746 -2.0898448178 0.9080395863
C 2.2456294120 -3.1303278130 1.8338286342
C 2.1698506596 -2.8549621599 3.1972300746
C 2.0824495380 -1.5323430375 3.6292270794
C 2.0632092159 -0.4936215019 2.7027756035
C -1.2757781323 -1.6022898516 1.0577939177
H -0.0487620338 1.5457121051 -2.8807279161
H 0.7637077498 0.5260709827 -4.0954886912
H 1.6065036176 1.0274898709 -2.6230598837
H 0.4623551465 -1.7990782301 -4.0429085379
H -0.3542097511 -3.8512648287 -2.9227999027
H -1.1492900913 -3.7552934090 -0.5788077085
H -1.8756618986 1.3416716165 0.9621420335
H -2.9210568655 0.0178995433 -0.9007224934
H -3.5379044229 1.6758166564 -0.8355002495
H -2.3495080942 1.2236846062 -2.0761759063
H -2.5555913171 5.5379378427 1.2567334066
H -0.9052141064 5.4768827029 0.5555654363
H -2.3339145541 5.4163771111 -0.5198159097
H 2.2145854387 -0.0443634045 -0.6811930754
H 2.8902313718 1.0767594901 0.5175430134
H 2.2721880028 -2.3080217009 -0.1553548474
H 2.3176754523 -4.1572201506 1.4881343866
H 2.1833998604 -3.6652688291 3.9195237163
H 2.0295694132 -1.3088421007 4.6904911161
H 1.9925004655 0.5358164238 3.0419795853
H -1.3316451365 -2.6092544879 1.4771848345
H -2.2797793563 -1.1638461677 1.1081049376
H -0.6231753863 -0.9970100618 1.6937311693
