45
CONF27
C -2.7232308576 -1.0124063212 1.4323257629
C -2.9320925884 0.3384239382 0.8131333549
N -4.0854557716 0.8992924651 0.7150945558
O -5.0917609311 0.0810085221 1.2389562285
C -6.3493588577 0.7380489783 1.0665534620
C -1.7932823057 1.1653816395 0.3547758442
C -0.7160392401 0.6175690606 -0.3695307373
C 0.3641815899 1.4389899714 -0.6988443674
C 0.3860186247 2.7833537168 -0.3648737753
C -0.6851811428 3.3215372239 0.3365015999
C -1.7573842290 2.5191315043 0.7032177576
O 1.3829319403 0.9388386632 -1.4984192324
C 2.4313553087 0.3352227726 -0.8669992509
N 2.4736633326 0.3980280609 0.4552882615
C 3.5171536091 -0.2206964212 1.0146506282
C 4.5033382360 -0.8654029994 0.2785164036
C 4.3298585190 -0.8227552117 -1.1027385423
N 3.2968329486 -0.2235272922 -1.6987939822
O 5.2616552220 -1.4251508042 -1.8598367847
C 5.0633213084 -1.3932522592 -3.2856518289
O 3.6302387893 -0.2236632703 2.3537613682
C 2.5787261810 0.4237521238 3.0938309825
C -0.7069942004 -0.7939659520 -0.8473102356
O 0.2195237090 -1.5651738236 -0.7456924921
O -1.8841608305 -1.1076339680 -1.4339956343
C -1.9803724221 -2.4719246443 -1.8943288682
H -3.3086523325 -1.7736691609 0.9086518176
H -3.0877791919 -0.9900554450 2.4650970210
H -1.6703474318 -1.2976774724 1.4392531404
H -6.3652905242 1.6965296544 1.5975844283
H -6.5605879222 0.9030349441 0.0042290823
H -7.0923746569 0.0616745234 1.4947508763
H 1.2401378659 3.3831702541 -0.6577852776
H -0.6771541279 4.3711686016 0.6114356594
H -2.5832056420 2.9262643883 1.2742893256
H 5.3417005914 -1.3651779628 0.7421515613
H 5.9110974499 -1.9404332404 -3.6988623716
H 5.0537425171 -0.3637040979 -3.6533870567
H 4.1216558568 -1.8780122327 -3.5565938788
H 1.6128357316 -0.0448107452 2.8848194313
H 2.5210073031 1.4860508399 2.8404985903
H 2.8509998515 0.2935018926 4.1415635518
H -1.8403216118 -3.1647441392 -1.0597220923
H -1.2193623229 -2.6696879112 -2.6534462381
H -2.9815883447 -2.5655879638 -2.3141179491
