51
CONF14
C 5.5693489662 1.4182207834 2.1030477940
C 5.5291777344 0.6421770500 0.8155087242
C 6.6516721095 0.2233953518 0.1780363640
C 8.0549309876 0.4303554409 0.6566466347
O 8.4011615177 -0.4331300052 1.7701685935
C 4.2401936984 0.3201301379 0.2437661596
C 3.0305674516 0.6514311521 0.7720161744
C 1.7926997229 0.2999852962 0.1516465566
C 0.5265514131 0.5778595853 0.5949186129
C 0.2417927440 1.3313576617 1.8629223202
C -0.5889087773 0.1226009753 -0.2011080805
C -1.8978290139 0.2968479630 0.1052767559
C -3.0355496099 -0.1741704778 -0.6806353685
C -3.0726120696 -0.1131929376 -2.0367555654
C -2.0529662336 0.5922257670 -2.8876515012
C -4.1851953625 -0.7254983914 -2.8475937115
C -5.0499019497 -1.6923716175 -2.0532920486
C -5.4259871347 -1.0348873035 -0.7347181995
C -4.1997312217 -0.7458836703 0.1496356566
C -4.6476444430 0.2584350608 1.2303180767
C -3.7380971281 -2.0381577093 0.8495275316
H 6.5893495610 1.6401180807 2.4161329298
H 5.0197970185 2.3608792100 2.0052341061
H 5.0884080139 0.8484649490 2.9063407568
H 6.5300052834 -0.3505786419 -0.7397472763
H 8.7569321063 0.2665473427 -0.1713222861
H 8.2118543257 1.4474326399 1.0285428134
H 8.1780556834 -1.3351347045 1.5064645403
H 4.2576709167 -0.2393214086 -0.6920629416
H 3.0024604107 1.2052807554 1.7061278682
H 1.8745020502 -0.2541312503 -0.7842899510
H 1.1492412601 1.6203455215 2.3920054093
H -0.3327404359 2.2402191416 1.6502195485
H -0.3664543772 0.7234163301 2.5428128227
H -0.3306865532 -0.4224731858 -1.1072043946
H -2.1323918235 0.7704361016 1.0551539472
H -1.4457934395 1.3021261471 -2.3232168392
H -2.5675612715 1.1268419273 -3.6960622254
H -1.3742066370 -0.1214960228 -3.3730654080
H -4.8074110178 0.0833779952 -3.2631194556
H -3.7386099552 -1.2243208947 -3.7194175570
H -5.9460678047 -1.9607233153 -2.6235180203
H -4.4963581576 -2.6214122254 -1.8696849128
H -6.1284252506 -1.6545127692 -0.1638557291
H -5.9377620931 -0.0863045681 -0.9511650126
H -3.9106160802 0.3747720517 2.0298810386
H -4.8475856039 1.2424956962 0.7923993118
H -5.5735063360 -0.1045701968 1.6905740868
H -2.8577183803 -1.8475043032 1.4723009620
H -4.5364554510 -2.4264372395 1.4925758218
H -3.4716013636 -2.8115642662 0.1223918562
