36
CONF1
C 5.3863592726 0.3786777412 2.1148809934
O 4.6898599278 1.0129524226 1.0332983742
C 3.5702182675 0.3984854259 0.5612927630
C 2.9180020938 1.0446164303 -0.4943279196
C 1.7661244848 0.5046930435 -1.0441467785
C 1.2327493634 -0.6992703728 -0.5655957872
C 1.9016059293 -1.3331678273 0.4820914749
C 3.0555853182 -0.8020612326 1.0538462120
C -0.0461863291 -1.3486296737 -1.0692303983
C -1.3161557177 -0.6940110916 -0.5515760585
C -1.5188761630 0.6851500252 -0.5763494082
C -2.6865705530 1.2594373865 -0.0799726245
C -3.6782830813 0.4408750538 0.4674945628
O -4.8530898474 0.8929007979 0.9854166210
C -5.0887829016 2.3078859728 0.9616105169
C -3.4831035064 -0.9439061964 0.5161777288
C -2.3169181616 -1.4955564528 0.0122870841
C -0.0841979636 -1.6059447853 -2.6003052676
Cl -1.4329081228 -2.7549730911 -2.9900191855
Cl -0.3525077954 -0.1254638685 -3.5956993594
Cl 1.4617365274 -2.3775240699 -3.1354362012
H 5.7484355938 -0.6132078444 1.8201521085
H 6.2336460773 1.0267942573 2.3396140717
H 4.7431564917 0.2921100868 2.9983602315
H 3.3273131226 1.9742471517 -0.8765251216
H 1.2987051767 1.0348137753 -1.8643705455
H 1.5156856695 -2.2712532914 0.8722507381
H 3.5361036851 -1.3332830643 1.8660845728
H -0.0369542260 -2.3684291178 -0.6679944220
H -0.7576781798 1.3431289723 -0.9790688045
H -2.8031432506 2.3352739177 -0.1189434460
H -4.3307419564 2.8414855463 1.5465984076
H -6.0697894800 2.4498103112 1.4154043971
H -5.0995511312 2.6863885302 -0.0670113401
H -4.2515740688 -1.5714080668 0.9558208560
H -2.1782738513 -2.5716362089 0.0608142614
