51
CONF2
C -1.0692749231 -1.5295006358 1.7090918817
C -0.9662932922 -0.1262939098 1.1892410224
C -2.0567659847 0.6021431648 0.9151083355
C -2.0270221384 2.0001646358 0.4245372187
C -1.8453158972 2.3233908556 -1.0860933474
C -3.1471134700 2.6163860433 -0.3532608434
C -4.3979262667 1.8220807764 -0.6524918397
C -3.4148636127 4.0886114993 -0.1157061903
C -1.6527544651 1.1879215149 -2.0016765761
O -2.3095228650 0.1692648046 -2.0596124434
O -0.5567344819 1.4067305448 -2.7870026228
C -0.1562079157 0.2618891431 -3.5961184051
C 0.5770199210 -0.7434250710 -2.7778104224
C 1.9830890808 -0.7722148276 -2.4950537491
C 2.2008164727 -1.8319101255 -1.6708696024
O 1.0106910762 -2.4667344862 -1.4179563539
C 0.0373599162 -1.7899297341 -2.0950915445
C 3.3962810135 -2.3666260273 -0.9644861801
C 3.3696191794 -2.0393293674 0.5161862256
C 2.6517183139 -2.8395526691 1.4059913829
C 2.5822900321 -2.5100581617 2.7557548847
C 3.2326891961 -1.3760087034 3.2337650602
C 3.9509520057 -0.5726650487 2.3527657409
C 4.0156600829 -0.9025264306 1.0028075855
C 0.4318724892 0.3684474615 0.9730905940
H -0.5673284202 -1.6201961731 2.6808728571
H -0.5560791689 -2.2251860078 1.0328071926
H -2.1090094069 -1.8476068954 1.8201319156
H -3.0348325822 0.1496251549 1.0619820386
H -1.4632611586 2.6940262800 1.0466699462
H -1.2099513347 3.1758723100 -1.3024598120
H -5.0907331375 1.9021492393 0.1933423259
H -4.8982524985 2.2332992345 -1.5358305192
H -4.1875452251 0.7719585970 -0.8466501922
H -2.4931293956 4.6366309946 0.1021243528
H -3.8834824035 4.5436831589 -0.9952244436
H -4.0938686514 4.2163503665 0.7348793250
H 0.4913101006 0.6906919578 -4.3634562414
H -1.0433144544 -0.1738648846 -4.0620010028
H 2.7321538481 -0.0843575726 -2.8595123087
H -0.9727451626 -2.1466283925 -1.9764428535
H 4.2855711427 -1.9309250974 -1.4285187704
H 3.4502275300 -3.4529764584 -1.1038786532
H 2.1391111497 -3.7227338711 1.0358197719
H 2.0204420394 -3.1423366212 3.4361399540
H 3.1812227360 -1.1203639398 4.2871924400
H 4.4621603516 0.3129541898 2.7170530667
H 4.5713129579 -0.2679558987 0.3174216916
H 0.9419849507 -0.2577100014 0.2305032689
H 1.0217671930 0.2847455757 1.8942878777
H 0.4660055385 1.4005992019 0.6193421607
