24
CONF3
C -4.9125330162 0.0463795890 -0.6872296908
O -3.4633255574 0.0614020823 -0.7087556545
C -2.8630903255 -0.1071398191 0.4797976884
O -3.4675005635 -0.2649367173 1.5246871248
C -1.3784472172 -0.0788635272 0.3731968364
C -0.6326398251 -0.2410560758 1.5452130790
C 0.7517115794 -0.2222365858 1.4963091145
C 1.4083072291 -0.0409801315 0.2748096918
C 0.6636969217 0.1212193130 -0.8982899425
C -0.7231830046 0.1023240788 -0.8493224805
C 2.8970549689 -0.0275733569 0.2769651258
O 3.5772828697 -0.1675748504 1.2767943993
O 3.4076033516 0.1571272404 -0.9504628767
C 4.8546553775 0.1847475816 -1.0298142128
H -5.2161574171 0.1929289324 -1.7226761534
H -5.2863505208 0.8559972186 -0.0561411486
H -5.2720455423 -0.9142993177 -0.3112223242
H -1.1485373755 -0.3811897130 2.4883663504
H 1.3363144081 -0.3471454115 2.4006651125
H 1.1665343856 0.2619378950 -1.8471984671
H -1.2953104684 0.2283246811 -1.7602714630
H 5.2676017361 -0.7643340098 -0.6801999576
H 5.2472008916 1.0060553604 -0.4258043439
H 5.0811560137 0.3388856494 -2.0837225210
