37
CONF1
C 3.7446450695 -2.6455232377 1.5113627719
C 3.3487713081 -1.6967143963 0.3820343607
C 1.8484309111 -1.4044238653 0.3705383779
C 1.4638754984 -0.4461269034 -0.7515610620
C -0.0601140029 -0.1464771993 -0.8311419600
C -0.2839829974 0.8596051854 -2.0060659382
N -1.6758319235 1.2178629342 -2.1962238194
C -2.6146613374 0.5907349831 -2.9380938533
N -3.7880247415 1.1916668739 -2.7957432872
C -3.5023749125 2.2053105650 -1.9293364303
N -2.2374709968 2.2628428927 -1.5356043334
C -0.7331501908 -1.3964663014 -1.1892308319
N -1.2350840092 -2.3842140081 -1.5181099841
C -0.6210678553 0.4172503983 0.4733226446
C -1.7730840399 -0.0979879921 1.0635516365
C -2.2948032264 0.4603695628 2.2275834561
C -1.6462628859 1.5461168301 2.7964975814
Cl -2.2914465091 2.2619848028 4.2676637084
C -0.4950287190 2.0821207955 2.2305649794
C 0.0096246737 1.5124176468 1.0690579423
H 3.2213073072 -3.6033157131 1.4173488625
H 3.4881320581 -2.2188206504 2.4871997250
H 4.8202173454 -2.8468036893 1.5035087961
H 3.8992222953 -0.7519848167 0.4811066544
H 3.6405415365 -2.1277540307 -0.5844366315
H 1.5522553159 -0.9780903724 1.3372682718
H 1.2955057603 -2.3468304927 0.2584543316
H 1.7760050339 -0.8555561927 -1.7196164629
H 1.9849943928 0.5096251377 -0.6289192169
H 0.2772504178 1.7713502494 -1.7905080829
H 0.0908909286 0.4203529707 -2.9344812185
H -2.3950558943 -0.2693836326 -3.5572766128
H -4.2376999956 2.9214852627 -1.5850774049
H -2.2871154374 -0.9443633090 0.6195125060
H -3.1919958850 0.0526250525 2.6788123148
H -0.0000304113 2.9320787319 2.6860714411
H 0.9026153141 1.9450366153 0.6299660691
