47
CONF2
C -1.0463413940 1.5961458544 2.9524973401
C -2.2756872881 1.2521859663 2.1151375266
C -2.8927552543 2.4893986323 1.4628661856
C -4.1169665411 2.1855032542 0.6206139845
O -3.7594849267 1.3201090342 -0.5071147701
C -3.3068487882 1.9202451373 -1.6092953814
O -3.2533568922 3.1203447958 -1.7898343811
C -2.9103143525 0.9151562346 -2.6920174681
C -4.1115402440 0.6166767084 -3.5765474437
O -2.4718326210 -0.3339198081 -2.1503141333
C -1.3634098587 -0.3301411374 -1.3448271396
C -0.5181200098 0.7676653000 -1.1674672566
C 0.5732244657 0.6614680815 -0.3063034711
C 0.8071808069 -0.5281481002 0.3589370531
C -0.0236684142 -1.6279772465 0.1865308659
C -1.1107912203 -1.5278673256 -0.6688037988
O 1.8509930590 -0.5938455317 1.2940460079
C 3.0467253579 -1.0999403790 0.8921997236
C 4.0392240712 -1.1932312653 1.8787625163
C 5.2636498292 -1.6993117208 1.5040721719
C 5.4584372401 -2.0893325439 0.1720627900
C 4.4087101614 -1.9539881574 -0.7234870346
N 3.2125585690 -1.4630411211 -0.3706058379
C 6.7726743169 -2.6596571840 -0.2439470667
F 6.8647164884 -2.8395667810 -1.5802828010
F 7.0067496472 -3.8716623035 0.3335730914
F 7.8119630699 -1.8636169434 0.1240874420
H -0.6117838728 0.6999287085 3.4066272307
H -0.2737858035 2.0651319867 2.3328335931
H -1.3015707865 2.2945687717 3.7574321580
H -1.9981624627 0.5322726499 1.3365468884
H -3.0316703056 0.7640382202 2.7442386102
H -3.2014935379 3.2033924584 2.2379809184
H -2.1455487667 3.0009478313 0.8421733583
H -4.5840984298 3.0930379274 0.2314990523
H -4.8522662828 1.6010182572 1.1789266788
H -2.1126740168 1.3781785834 -3.2857407884
H -4.4798695792 1.5433562340 -4.0231994890
H -4.9116007746 0.1579529037 -2.9893091621
H -3.8131696238 -0.0657343620 -4.3759706034
H -0.6879368439 1.7086883335 -1.6766645909
H 1.2351581019 1.5073000752 -0.1530728709
H 0.1779050674 -2.5495537225 0.7226713700
H -1.7826616078 -2.3675095044 -0.8124882413
H 3.8339509823 -0.8755725498 2.8940693642
H 6.0640494296 -1.7929398084 2.2311937168
H 4.5215388354 -2.2453545121 -1.7642865853
