47
CONF66
C 1.4597347690 4.6397599227 1.2550071874
C 1.1906425373 3.1948648563 1.6103276965
C 0.5083325013 2.8511549110 2.9139822629
C -0.2809977451 2.7732529979 1.6062152428
C -0.6819289283 1.4488057593 1.1135683857
O -0.2415655619 0.3712055630 1.4519318483
O -1.6587257435 1.5815130777 0.1610668209
C -2.0548072125 0.3347041158 -0.4656799919
C -3.3663338427 0.5979027209 -1.0581380198
N -4.3986452303 0.7692856048 -1.5462396293
C -1.0587211389 -0.1061991152 -1.5161186937
C -0.5094607061 -1.3826771320 -1.4413215430
C 0.4169542078 -1.7921132842 -2.3957654931
C 0.7829371683 -0.8966272916 -3.4009956541
C 0.2513041049 0.3776509337 -3.4779418013
C -0.6864911184 0.7744610079 -2.5320450116
F 1.6889025568 -1.2974132184 -4.3172298736
O 1.0570779979 -3.0023698951 -2.3696474001
C 0.3631518801 -4.1155416148 -1.9010771678
C 1.0483536175 -4.9687213745 -1.0454682274
C 0.4217967348 -6.1354684553 -0.6136927388
C -0.8737462047 -6.4350189155 -1.0288935947
C -1.5429083154 -5.5656993493 -1.8894268483
C -0.9275033282 -4.4002620894 -2.3368815127
C 0.1295206632 3.8690402941 3.8963600080
C 0.2343345630 3.7370929663 5.2190293529
Cl 0.8498024749 2.3139511581 6.0147073546
Cl -0.2417864192 5.0038368760 6.3214266863
C 2.2491066281 2.2395016941 1.1100050845
H 1.6052790222 4.7305546042 0.1737328609
H 2.3761646862 4.9780814622 1.7509431802
H 0.6436662694 5.3053114026 1.5429983957
H 0.7812987340 1.8792493713 3.3134215483
H -0.9859749384 3.5720105332 1.4023647328
H -2.1729098155 -0.4432315464 0.2975175075
H -0.7877941030 -2.0590189829 -0.6398729313
H 0.5644871590 1.0373813204 -4.2797463053
H -1.1193040498 1.7680583448 -2.5844524802
H 2.0551089198 -4.7162941606 -0.7296742789
H 0.9500915306 -6.8078813333 0.0548104538
H -1.3596923928 -7.3426898238 -0.6866567317
H -2.5488865018 -5.7975693882 -2.2247910314
H -1.4387489479 -3.7242752046 -3.0146754327
H -0.2745693529 4.8105055509 3.5367422446
H 3.2228425752 2.5429990285 1.5086206637
H 2.3043384690 2.2768203487 0.0161538276
H 2.0562721230 1.2101158599 1.4151291597
