47
CONF143
C 4.5534552720 0.4203021235 4.8290184183
C 3.1262901637 0.0034037336 4.4492051685
C 2.9644388484 -1.5205681376 4.5223729050
C 2.7413053217 0.5351384366 3.0840365794
C 1.6909265705 1.4452154154 2.9426983601
C 1.3218982514 1.9382339734 1.6931926856
C 2.0231765402 1.5099077139 0.5779782792
C 3.0791341739 0.6147702515 0.6762324956
C 3.4290001783 0.1327062551 1.9330841752
O 1.6604080520 2.0334747707 -0.6817609275
P 0.7748857790 1.1016602030 -1.6401886637
O 1.3657681199 -0.1728675252 -2.1009299757
O 0.4628605271 2.2205140570 -2.7474203896
C -0.4752666865 1.9081810404 -3.7516989187
C -1.7384336332 2.4746049056 -3.6573950742
C -2.6668127819 2.2014490049 -4.6587097369
C -2.3262347099 1.3728841168 -5.7260595015
C -1.0498933114 0.8190349245 -5.7988036741
C -0.1079995147 1.0858534110 -4.8076655251
O -0.6202854803 0.9331509432 -0.8499960251
C -1.1917978249 -0.3324581743 -0.6319009701
C -0.8330659589 -1.0479105389 0.5012437706
C -1.4500590262 -2.2741511854 0.7371120401
C -2.4056007338 -2.7640875445 -0.1508261962
C -2.7478998571 -2.0259852971 -1.2819392195
C -2.1388682395 -0.7983811102 -1.5317662636
H 4.6680125530 1.5082551386 4.7965749205
H 5.2835689675 -0.0206031252 4.1417218844
H 4.7924845194 0.0768662848 5.8408277837
H 3.6536364070 -2.0196665300 3.8326290878
H 3.1841872767 -1.8770160529 5.5341110613
H 1.9444988418 -1.8219434789 4.2632880616
H 1.1458850591 1.7739592885 3.8231574531
H 0.5006139421 2.6379211593 1.5808767990
H 3.6115645163 0.3028006475 -0.2155779069
H 4.2543777110 -0.5685069865 2.0111907528
H -1.9824759958 3.1108185196 -2.8135846891
H -3.6591705974 2.6366736292 -4.5998827030
H -3.0542307371 1.1611329764 -6.5022484525
H -0.7796322008 0.1772175795 -6.6310469577
H 0.8911249711 0.6667555612 -4.8477064413
H -1.1795412290 -2.8460942134 1.6188604355
H -2.8826082290 -3.7200800412 0.0383282808
H -3.4906319350 -2.4041914794 -1.9769114606
H -2.3898056264 -0.2082721048 -2.4077241515
H 2.4376203951 0.4528394412 5.1753354509
H -0.0864618301 -0.6495646307 1.1813602491
