27
CONF10
C -3.8886632344 0.7914315013 -0.3949372606
C -4.4767472715 -0.4304127189 -1.0845010845
O -3.7169236420 -0.7082970407 -2.2657601926
C -2.6893210554 0.5513210903 0.4964556615
C -1.3866039560 0.0398784516 -0.1943996304
C -0.0793238692 0.2240946322 0.6547665501
C 1.1103691117 -0.6765081403 0.1649494082
C 2.5097745554 -0.1794746324 0.6673212632
C 3.6382563030 -1.2595583733 0.5774094016
F 3.6493966869 -1.8253571830 -0.6377109926
F 3.4671365427 -2.2094435691 1.5029021937
F 4.8210159356 -0.6661894481 0.7888337323
F 2.4183218869 0.2056710131 1.9615197748
F 2.8930516736 0.8763923683 -0.0821783888
F 0.9146623966 -1.9381960484 0.6131393744
F 1.1327604469 -0.6910919304 -1.1877968033
F 0.3119074556 1.5189667636 0.5832132577
F -0.3335851603 -0.0867473705 1.9466250325
F -1.5254102452 -1.2833058563 -0.4636312695
F -1.2169292867 0.7143322698 -1.3574312067
F -3.0030481435 -0.3456978862 1.4838700587
F -2.3633480528 1.7345834204 1.1209472246
H -3.6329759379 1.5571863713 -1.1329442424
H -4.6418574382 1.2174588489 0.2772812983
H -4.4819584922 -1.2927415716 -0.4040920742
H -5.5181007293 -0.1984483490 -1.3444966848
H -4.0435926651 -1.5379412889 -2.6350120432
