52
CONF23
C -1.4869700554 -3.3919103111 -1.7954862045
C -1.8244268806 -2.5836840737 -0.5731760408
C -1.7224024884 -1.1970487213 -0.5885746169
C -2.0546525956 -0.4401096644 0.5413048504
C -2.4981903969 -1.0675492545 1.7056887305
C -2.5918490292 -2.4610677188 1.7179607464
C -2.2602809573 -3.2160451999 0.6009591101
O -1.9031607590 0.9102262243 0.4030444752
C -2.2049115526 1.7496528157 1.5282569612
C -1.8920442377 3.1919625223 1.1591024630
C -0.4351610343 3.4145643446 0.7240906565
N -0.2607103608 3.0298892526 -0.6811560671
C 1.0072886107 3.4641956006 -1.2704738134
C 2.2705265735 2.8071020487 -0.6699616045
C 2.2167448150 1.3035889265 -0.7577835755
C 1.8627353075 0.5390267368 0.3640347452
C 1.7498169803 -0.8451802484 0.2886434061
C 1.9994011920 -1.5013376976 -0.9380057083
C 2.3480954300 -0.7456938671 -2.0520615802
C 2.4521372445 0.6456288840 -1.9606793695
O 1.8747283583 -2.8601217197 -0.9184173922
C 2.1823646729 -3.5586901425 -2.1303050634
O 1.4116806851 -1.6546476814 1.3322573530
C 1.1467524270 -1.0232069099 2.5908206920
O -2.7838464616 3.6817530503 0.1542678517
H -2.3948390996 -3.8092045332 -2.2463028099
H -0.9842329309 -2.7800046778 -2.5485046294
H -0.8347003482 -4.2328654450 -1.5407041542
H -1.3749584386 -0.6780870115 -1.4779753831
H -2.7601872290 -0.5013099296 2.5908046965
H -2.9302387729 -2.9562535992 2.6235463161
H -2.3386207818 -4.2990797849 0.6312529542
H -3.2670971647 1.6537366793 1.7909667723
H -1.5932654147 1.4546457436 2.3928323037
H -2.0687596183 3.7752140474 2.0728100710
H -0.2085237718 4.4853171334 0.8035760815
H 0.2265278756 2.8864403297 1.4296324004
H -0.3300888931 2.0182403470 -0.7556253915
H 1.0833301263 4.5543999975 -1.1686532314
H 0.9736777105 3.2367261168 -2.3435077864
H 2.3899596034 3.1172175834 0.3739944730
H 3.1391192298 3.1863757751 -1.2217797794
H 1.6851668026 1.0437283440 1.3066700974
H 2.5474220684 -1.2311191022 -2.9999262893
H 2.7271885756 1.2142482884 -2.8447594834
H 3.2229961463 -3.3844051920 -2.4294984591
H 2.0352190341 -4.6159651394 -1.9073902156
H 1.5101979863 -3.2582908718 -2.9423774180
H 0.8740337587 -1.8290652334 3.2731588522
H 2.0373006387 -0.5046981197 2.9658082484
H 0.3128952808 -0.3160034784 2.5080064031
H -2.2831872628 3.5787655367 -0.6763898302
