40
CONF115
C 4.9590374225 1.0057764925 0.5148527535
C 4.5291288718 -0.4398310526 0.6265636419
O 3.1612719659 -0.5651057873 1.1212871289
P 1.9002967830 -0.2778360733 0.1843621389
S 2.0462719612 -0.7121015427 -1.6969264271
O 1.5230179427 1.2257217249 0.5751130669
C 0.8319557692 2.1436637283 -0.3294228051
C 1.8174788775 3.1236426414 -0.9211474784
O 0.8900671730 -1.2165559853 1.0908430631
C -0.4367286259 -1.3813560949 0.8258633537
C -1.0824500450 -2.4210757178 1.4895940616
C -2.4321765022 -2.5743245289 1.2129840016
N -3.0659155750 -1.7672801258 0.3362831401
C -2.3466677746 -0.8064768224 -0.2425924228
N -1.0397772865 -0.5653800833 -0.0182066861
C -3.0441145055 0.0932811971 -1.2336966459
C -3.1359444125 1.5246058476 -0.6897060283
C -2.3371966097 0.0586929523 -2.5933416066
C -3.2565931831 -3.6443293922 1.8554953096
H 4.8192642463 1.5286661281 1.4650160681
H 4.3944045913 1.5273071680 -0.2626240489
H 6.0202259928 1.0427724505 0.2484589428
H 5.1219507022 -0.9786311647 1.3690482630
H 4.5999714627 -0.9605136608 -0.3341658881
H 0.3165639250 1.5670751906 -1.1010219689
H 0.0873974905 2.6413438877 0.2974511404
H 2.3666364284 3.6501800558 -0.1354437744
H 1.2741544543 3.8619553972 -1.5199122741
H 2.5284541454 2.6085887384 -1.5729578154
H -0.5476502926 -3.0666548300 2.1749711715
H -4.0573772009 -0.3054386466 -1.3457244491
H -2.1367146086 1.9507021147 -0.5625538775
H -3.6478812483 1.5497856805 0.2773625787
H -3.6922786251 2.1552103468 -1.3902764031
H -2.2896150371 -0.9607288000 -2.9884863608
H -2.8787698454 0.6821448203 -3.3116598903
H -1.3135768120 0.4354869689 -2.5074795975
H -4.0922800278 -3.1915647197 2.3984823824
H -3.6881762606 -4.2912651088 1.0852814783
H -2.6656669286 -4.2501533836 2.5447377518
