28
CONF13
C -2.9645054390 0.3117456476 -0.5710980371
N -1.6285755250 0.6406822677 -0.0950499293
C -0.9477653120 1.6972383302 -0.8689370579
O 0.3415213697 1.9502222112 -0.3845878567
C 0.3206642376 1.8780746234 1.0412187117
N 0.0726871183 0.5187292480 1.4662273319
C -0.9782030427 -0.1037800783 0.8300388969
N -1.3420323033 -1.2926046589 1.2895455439
N -1.8873067457 -2.1744842095 0.3673450157
O -2.6838194387 -2.9893522544 0.8075550690
O -1.4850453257 -2.1522268592 -0.8066276660
C 1.2301591947 -0.3132160721 1.8572353000
C 2.1543137288 -0.5957937206 0.7109770469
C 1.9779862249 -1.4853639105 -0.3126398877
N 2.9375106964 -1.4913941688 -1.2934123608
C 3.8468183473 -0.6128888418 -1.0367635936
S 3.6219988382 0.3095920741 0.4334861212
Cl 5.2282037044 -0.3282804842 -2.0293115982
H -3.4866011094 1.2473055427 -0.8003962388
H -2.9323198849 -0.3203747575 -1.4658909237
H -3.5174369371 -0.2097529478 0.2131870451
H -0.8420326964 1.3776681187 -1.9139067263
H -1.5823077929 2.6010036008 -0.8214643870
H -0.4627765218 2.5426714213 1.4376448344
H 1.3000801456 2.2037405768 1.3952010235
H 1.7492301224 0.1962291718 2.6740793633
H 0.8309113338 -1.2494930423 2.2521060722
H 1.1286436107 -2.1558968336 -0.3981753000
