44
CONF97
C -5.3123314507 -0.1440121532 1.3702583894
C -3.8013648498 -0.1051311854 1.3148797728
C -3.0999610377 -1.3292218622 1.9464046876
O -2.5710665546 -2.0551565825 0.8220183199
C -2.2943387338 -1.0623280328 -0.1489271527
O -3.3869187731 -0.1677673134 -0.0775057831
C -2.3104396545 -1.7581899999 -1.5211353627
N -1.8174221742 -0.8950827783 -2.5766489386
C -0.5685339053 -0.8344182338 -3.0819400088
N -0.4703527849 0.1683508545 -3.9458483447
C -1.7224741804 0.7073168294 -3.9197777955
N -2.5735515660 0.1008169769 -3.1018241407
C -0.9754211586 -0.3262514217 0.1169079160
C -0.9509352148 1.0704078204 0.0390397190
C 0.2145641534 1.8042249937 0.1972842856
C 1.4065502166 1.1314774153 0.4430831981
C 1.4317088018 -0.2571881602 0.5354134687
C 0.2465118866 -0.9608087649 0.3620090382
Cl 0.3815710450 -2.7168904324 0.4500648424
O 2.5278153096 1.9012185652 0.6478636920
C 3.7721221575 1.3767428608 0.3299380335
C 4.7811298089 1.5043406634 1.2759014188
C 6.0664442522 1.0665496813 0.9703842744
C 6.3068639813 0.5028183307 -0.2763060016
C 5.3006123564 0.3742180962 -1.2280249225
C 4.0204547000 0.8209808128 -0.9222121387
Cl 7.9292090236 -0.0609160895 -0.6648121935
H -5.6444781060 -0.0550640152 2.4092038135
H -5.6835660180 -1.0885657003 0.9602061620
H -5.7395125971 0.6860211714 0.8005270003
H -3.4192456103 0.8244704367 1.7555025979
H -2.2866098259 -1.0266494648 2.6176779871
H -3.7910620553 -1.9906583463 2.4730673760
H -1.6670866306 -2.6395197375 -1.4811410912
H -3.3352542163 -2.0632978092 -1.7449863823
H 0.2098615056 -1.5327122864 -2.8011160356
H -2.0191196836 1.5585306635 -4.5197915202
H -1.8805476303 1.5870559879 -0.1689686369
H 0.2100965393 2.8861979411 0.1266654655
H 2.3557782320 -0.7852002842 0.7372189597
H 4.5621482153 1.9448689972 2.2424936491
H 6.8638552694 1.1595412421 1.6986587303
H 5.5105621590 -0.0594527081 -2.1990528306
H 3.2237338036 0.7383332175 -1.6541759300
