20
CONF20
C -0.6751183752 1.6945109366 0.0302466606
C -1.5055911807 0.6390071737 -0.6789453267
I -3.6216363565 1.1427126567 -0.5282340929
C 0.8330431586 1.5340383825 -0.1462744943
C 1.4850200368 0.4587389832 0.7727600654
C 2.9693810194 0.0982239187 0.4365481430
C 3.7247456203 -0.6433268209 1.5870939004
F 3.9762031779 0.1835107460 2.6074105725
F 2.9998892957 -1.6812515419 2.0304926945
F 4.8910402925 -1.1027916270 1.1131642036
F 3.6657327878 1.2215329411 0.1540675325
F 2.9805669358 -0.7110086009 -0.6462576711
F 1.4146532456 0.9085426671 2.0518455385
F 0.7545140807 -0.6851006608 0.6892897353
F 1.1389585802 1.2220942207 -1.4428826720
F 1.4312895205 2.7261563304 0.1427584582
H -0.8958640427 1.7244904869 1.1015290032
H -0.9022253580 2.6851724067 -0.3763081709
H -1.2983714060 0.5980367940 -1.7463478245
H -1.4244369675 -0.3509270620 -0.2390904725
