27
CONF122
C -3.7111536885 0.1505359172 -0.2449061389
C -4.4993393852 -0.4427473674 -1.4037368081
O -4.3941304091 -1.8696387676 -1.3693702731
C -2.2110570441 0.0199347580 -0.3904734326
C -1.4262134174 0.7930370572 0.7079439067
C 0.1388284419 0.9054620593 0.5867924945
C 0.9608960084 -0.4203730038 0.4819396884
C 2.4835054442 -0.2309626138 0.8140167977
C 3.3923800126 -1.3969690575 0.3012742231
F 2.8864295194 -2.5816267049 0.6713939770
F 4.6114678673 -1.2593892965 0.8402400814
F 3.5099036508 -1.3654652918 -1.0302206248
F 2.6319120711 -0.1588956398 2.1542410475
F 2.9387211078 0.9142985746 0.2567536348
F 0.4612416151 -1.3305589952 1.3467550634
F 0.8540832775 -0.8977140030 -0.7802457108
F 0.4286323779 1.6739506336 -0.4860565910
F 0.5506939270 1.5582416948 1.7068892756
F -1.8629160594 2.0821806409 0.7191188417
F -1.7192017339 0.2403164570 1.9112898163
F -1.7884440183 0.4972179504 -1.6055002090
F -1.8091769906 -1.2879835645 -0.3153385758
H -3.9508403999 1.2157260299 -0.1794093749
H -4.0061194880 -0.3209914233 0.6978504611
H -5.5440666963 -0.1263565773 -1.2832580827
H -4.1311888819 -0.0428222180 -2.3580370020
H -4.9265833040 -2.2165019668 -2.0956041171
