70
CONF202
C -3.1241299641 -0.2180987911 -0.0166837655
C -4.4148053240 0.6260617928 0.1291635728
C -5.3409678593 -0.0295687454 1.1010736617
C -6.7023226943 -0.0294585876 1.2880879561
N -7.0161945664 -0.8595105679 2.3601393259
C -5.8628310078 -1.4131655070 2.8667627520
C -5.5952805194 -2.3097386512 3.9046486071
C -4.2598998312 -2.6536938235 4.1019238185
C -3.2080723794 -2.1369045306 3.3104522587
C -3.4723042688 -1.2360141343 2.2841380402
C -4.8085040152 -0.8969671932 2.0862730092
C -2.4800538368 -0.5511619769 1.3659937304
C -1.1956189713 -1.3629303465 1.2030506858
C -0.2338149419 -0.6536015625 0.2537749006
C -0.9516118541 -0.3774549404 -1.0701446425
N -2.1199275066 0.4831565790 -0.8477276710
C -2.6506553707 0.9100667403 -2.1572096661
C -1.6560178512 1.7311557236 -2.9212607976
C -1.3387769112 1.5376199338 -4.1993774011
C 0.9888287193 -1.5003288935 -0.0432729693
O 0.8790691827 -2.5727063800 -0.6384294170
N 2.2364245291 -0.9889221087 0.2507600323
C 3.4117155377 -1.6624924035 -0.3453919073
C 3.5089656838 -1.5015999705 -1.8647127528
C 3.3671092417 -0.0706387071 -2.3732208365
N 4.2818532817 0.8924615475 -1.7380613429
C 3.9736625086 2.2476883426 -2.2081623536
C 5.6893153523 0.5747746474 -1.9976244941
C 2.4201565070 0.0063204673 1.2733001975
O 1.7471449692 -0.0161881671 2.3073303498
N 3.3863175684 0.8928161802 1.0038962107
C 3.8095804846 1.8815546668 1.9906029990
C 5.2158639672 2.3706234161 1.6748154176
H -3.4025268917 -1.1838383979 -0.4900126447
H -4.1308591779 1.6337665037 0.4670809152
H -4.9126248913 0.7368866136 -0.8372608902
H -7.4897222485 0.4853101515 0.7546652455
H -7.9496395183 -1.0323991746 2.6963216822
H -6.3808912806 -2.7255356149 4.5274587887
H -4.0139649893 -3.3516454258 4.8968951437
H -2.1938724005 -2.4574062664 3.5256947655
H -2.2153341608 0.4184088270 1.8194994304
H -0.7149350568 -1.5081173902 2.1752571196
H -1.4391084153 -2.3532963183 0.7965142857
H 0.0540502275 0.3071537797 0.6850460091
H -0.2695222061 0.1342781762 -1.7577674530
H -1.2414138401 -1.3363830305 -1.5401021039
H -2.9837612477 0.0501928099 -2.7704717465
H -3.5237123099 1.5474456115 -1.9850522483
H -1.2101113966 2.5586884001 -2.3681195213
H -1.7646304637 0.7134287595 -4.7674538781
H -0.6488639645 2.1970026294 -4.7174506803
H 3.3558904913 -2.7285899645 -0.1004850743
H 4.2985768707 -1.2579069994 0.1456419701
H 4.4644764543 -1.9364492879 -2.1789175473
H 2.7257265763 -2.0953631322 -2.3454274789
H 2.3449484739 0.2794283216 -2.1761967487
H 3.5008842156 -0.0687700272 -3.4714436008
H 2.9356559978 2.4960291947 -1.9614643090
H 4.1059710725 2.3478779508 -3.3000838857
H 4.6325613928 2.9686255653 -1.7139913395
H 5.9516222145 -0.3936570426 -1.5633802348
H 5.9146184420 0.5465249807 -3.0789666279
H 6.3215086662 1.3374426419 -1.5322459650
H 3.7989933754 0.9170201265 0.0473260907
H 3.1072670787 2.7270258019 2.0051141612
H 3.7741596142 1.4188341849 2.9827083911
H 5.2576946129 2.8394004106 0.6864113682
H 5.9308859268 1.5420111085 1.6950772341
H 5.5257833989 3.1134211615 2.4146745939
