33
CONF1
C 4.8135551366 -0.9003037931 0.0596840132
C 3.9676375029 0.1862267214 -0.0426535684
C 2.5780533497 -0.0053123566 -0.1218699788
C 2.0641786490 -1.3166921980 -0.0979856962
C 2.9170046973 -2.4210871161 0.0018840788
C 4.2706262197 -2.1865201095 0.0774340948
F 5.1159354426 -3.2317985785 0.1712285687
C 0.6214800902 -1.5329528100 -0.1269979848
O 0.0644099524 -2.6105771475 -0.0719547613
N -0.1406744202 -0.3234089698 -0.1890223930
C 0.4919095785 0.9009017436 -0.2838105073
N 1.7628711531 1.0989239173 -0.2603545639
N -0.3265955240 2.0435330439 -0.4075335452
C -0.0820415726 3.2802346656 0.1174561278
N -1.0170590997 4.1202601397 -0.2628199318
C -1.8238384243 3.3444219902 -1.0502343888
N -1.4532105156 2.0820094403 -1.1724682860
C -1.5459823482 -0.4488961725 0.0539651559
C -2.0854769569 -0.0820929548 1.2853352319
C -3.4471771466 -0.2071778985 1.5335333469
C -4.2527344084 -0.7362627563 0.5344367800
C -3.7315838886 -1.1412974666 -0.6904403072
C -2.3743428111 -0.9922795867 -0.9195689146
Cl -5.9661380946 -0.9031468706 0.8350787915
Cl -1.0526044422 0.5408242825 2.5478537128
H 5.8891080251 -0.7780196090 0.1221336085
H 4.3543838346 1.1986267787 -0.0683585931
H 2.5099425028 -3.4251255852 0.0232498301
H 0.7669569602 3.4784476693 0.7552247385
H -2.7053091468 3.7221131232 -1.5509743415
H -3.8621157384 0.0908939908 2.4876144820
H -4.3801714303 -1.5592988452 -1.4499910496
H -1.9409963261 -1.2851665820 -1.8683522498
