47
CONF57
C -4.3086373693 -1.0454165751 -2.3449657090
O -4.4441274065 -0.9318392635 -0.9092864911
P -5.0700329608 0.3978047573 -0.2685797227
S -4.5507797308 2.0945267144 -1.0313332506
O -6.6327263308 0.0331814143 -0.2644520490
C -7.5989642642 1.0379494053 0.1164654817
O -4.7215835580 0.1594995204 1.3000208206
C -3.4471238182 0.4566472653 1.7900466026
C -3.2286296212 1.6806720110 2.4024295206
C -1.9675222366 1.9646507563 2.9149279497
C -0.9460218604 1.0173663709 2.8285458545
C -1.1908191542 -0.2196649551 2.2260653621
C -2.4411959236 -0.4974916497 1.6923128636
S 0.6359837291 1.4039887270 3.5653035094
C 1.7786667755 0.8047215668 2.3292647273
C 2.9265991520 0.1333748229 2.7529889107
C 3.8650951789 -0.3015496437 1.8242590448
C 3.6424610490 -0.0768070751 0.4737855690
C 2.5025394733 0.5907485618 0.0350934178
C 1.5775333978 1.0396302016 0.9666538675
O 4.6253685824 -0.5039431853 -0.4126544770
P 4.2759762077 -1.3647273166 -1.7668560378
S 2.9204984956 -2.7116711653 -1.5915415925
O 5.7726022029 -1.7978874874 -2.1605692262
C 6.4211353465 -2.8486238815 -1.4103362370
O 3.9682260451 -0.2664164465 -2.8909645865
C 4.8889047600 0.8326205599 -3.1094296344
H -3.7597545908 -1.9715736914 -2.5174083191
H -3.7515268874 -0.1920118334 -2.7413839889
H -5.2956004572 -1.1016038686 -2.8141395426
H -7.4728056855 1.9368272906 -0.4941595809
H -8.5776979398 0.5910750283 -0.0609240847
H -7.4891986743 1.2851032211 1.1771921733
H -4.0300229754 2.4090033347 2.4450724385
H -1.7717213881 2.9304288302 3.3685224203
H -0.4005244489 -0.9601878629 2.1663529654
H -2.6482156772 -1.4471331244 1.2123073816
H 3.0782403376 -0.0643029517 3.8089187410
H 4.7563391590 -0.8341552814 2.1366287002
H 2.3408280616 0.7596254096 -1.0241451808
H 0.6903799331 1.5667390704 0.6324218681
H 6.5964785402 -2.5242763715 -0.3796902774
H 5.8074057991 -3.7542983604 -1.4215654892
H 7.3725841496 -3.0306247532 -1.9108781814
H 5.0775901678 1.3676463029 -2.1735228297
H 5.8281720619 0.4601584045 -3.5258040863
H 4.3956232527 1.4922174132 -3.8239435921
