45
CONF10
C 7.6298494113 0.6013178479 -1.9500944566
C 7.0167664061 0.8757363315 -0.5780017815
C 5.6106864869 0.2942232182 -0.4315002463
C 4.9887576650 0.5862456731 0.9348127260
C 3.6286129831 -0.0781074068 1.1648507781
C 2.5347170404 0.3886111507 0.2033595181
C 1.1572951774 -0.1563130888 0.5744109128
C 0.0667742295 0.2878870207 -0.4135712675
C -1.3042332256 -0.2105706162 -0.0385134343
C -1.6895265935 -1.4985437926 -0.4317663002
N -2.9336235144 -1.8961452188 -0.0410942992
C -3.7753595380 -1.0923074541 0.7157425930
N -4.9186790837 -1.7679932491 0.9292964093
C -4.7059468888 -2.9406012091 0.2918047648
N -3.5268868609 -3.0915678785 -0.3171374850
N -3.4226821315 0.1254542858 1.1195306685
C -2.2037221413 0.5464318330 0.7442139406
C -1.8588523280 1.9473521640 1.1773113940
C -2.2884744522 2.9768838288 0.1208675588
N -0.9466101356 -2.3843257406 -1.1200136216
H 7.6989107246 -0.4760899574 -2.1378656733
H 8.6372497286 1.0217830913 -2.0316008289
H 7.0171946685 1.0391633400 -2.7461397529
H 6.9771611881 1.9589183451 -0.4009603960
H 7.6626212029 0.4581394336 0.2058583164
H 5.6489523337 -0.7936488216 -0.5888213165
H 4.9747410575 0.7002805180 -1.2291499341
H 4.8850626828 1.6735415997 1.0591973517
H 5.6838252658 0.2510148180 1.7164532051
H 3.3031026421 0.1269653887 2.1936752834
H 3.7379174268 -1.1689012708 1.0858183997
H 2.7773620324 0.0804463586 -0.8218536639
H 2.4986350740 1.4877065907 0.1980797886
H 1.1912542557 -1.2531713574 0.6165819915
H 0.8831568710 0.1843760216 1.5815580382
H 0.0595159998 1.3792721629 -0.4721124835
H 0.3297058011 -0.0517850657 -1.4238881083
H -5.4421054329 -3.7353443201 0.2625997760
H -0.7878295492 2.0401266605 1.3769276887
H -3.3674971078 2.9181989587 -0.0505468619
H -1.7827746881 2.8000628429 -0.8336748280
H -0.0962055285 -2.0792654938 -1.5629140278
H -1.3958234164 -3.2087658510 -1.4885807878
H -2.3866378838 2.1465220385 2.1141407513
H -2.0466395690 3.9899669268 0.4551038546
