42
CONF3
C -3.6016578026 -0.1024103552 0.5669106660
C -2.2427316434 -0.1237248637 -0.1171938327
C -1.3949245231 -1.4198391207 0.1135307136
C 0.0151194081 -0.8958497448 -0.0505300228
C 0.0585400972 0.4964551537 -0.0099513855
C -1.3160682046 1.1023835771 0.1865933749
C -1.4425441274 1.6457180522 1.6202536595
C -1.5912229629 2.2463411998 -0.7965423662
C 1.2752310653 1.1464267307 -0.1205978987
C 2.4731672429 0.4196332189 -0.2571744597
C 2.4309735937 -0.9996383486 -0.2997197942
C 1.1862193322 -1.6287788534 -0.2010375281
C 3.6468260394 -1.8683009744 -0.4732732996
C 3.7545665040 1.1698332114 -0.3316506854
O 4.8394060989 0.6242488312 -0.1478192655
C 3.7098362697 2.6546113973 -0.6280311274
C -1.7424529771 -2.4905581721 -0.9281554900
C -1.5506975942 -2.0321806830 1.5174536119
H -4.1534068871 0.8063275514 0.3032548129
H -4.2069738616 -0.9591560317 0.2515691827
H -3.5120052907 -0.1369543408 1.6562421979
H -2.4175578461 -0.0874016227 -1.2019062207
H -2.4364299058 2.0730677198 1.7889850458
H -1.2662371337 0.8709478259 2.3710976844
H -0.7028588263 2.4385922947 1.7756964528
H -1.4258968214 1.9216414814 -1.8289504337
H -0.9394559527 3.1036479231 -0.5956102542
H -2.6285411764 2.5869440891 -0.7019940448
H 1.3052194611 2.2302499867 -0.0876127548
H 1.1459530502 -2.7144675606 -0.2471799943
H 4.2810578860 -1.8489836435 0.4176823800
H 3.3372918947 -2.9002593850 -0.6585473462
H 4.2734185175 -1.5303027727 -1.3026459557
H 4.7249814819 3.0019950828 -0.8226185534
H 3.3123662250 3.2010981880 0.2348177140
H 3.0655770659 2.8793234408 -1.4828140299
H -1.5494223420 -2.1267094887 -1.9425135488
H -2.8019097677 -2.7600112066 -0.8524153379
H -1.1547760302 -3.4008211802 -0.7692135571
H -0.8561347339 -2.8715730086 1.6284903031
H -1.3346007882 -1.3095067162 2.3086200476
H -2.5672439393 -2.4120586816 1.6625534241
