39
CONF19
C -2.8441162473 0.3364553897 3.6876542924
O -3.2553653052 0.1303874640 2.3291353972
C -2.2810396084 -0.1103576371 1.4102242845
C -0.9125842048 -0.1628629791 1.7005181350
C 0.0023768018 -0.4221042976 0.6804361414
C -0.4340719597 -0.6183303891 -0.6299272549
C -1.7986933429 -0.5651586020 -0.9215074136
C -2.7287532344 -0.3019035766 0.0963073727
O -4.0674889990 -0.1961614462 -0.1992589279
C -4.7623560609 -1.4574650977 -0.1089270265
O -2.3301948146 -0.7452788018 -2.1611913907
C -1.4165174415 -1.0034252756 -3.2363643825
C 1.4868706350 -0.4985878308 0.9968136164
C 2.3578707354 0.2327416299 0.0151058076
C 3.2915509663 -0.4065951052 -0.7752800181
N 4.0968624586 0.2059763967 -1.6592879556
C 3.9374509793 1.5395374259 -1.7400427622
N 3.0667443802 2.2842846648 -1.0368354648
C 2.2785919021 1.6374189113 -0.1657801336
N 1.4256057705 2.3921973041 0.5789523246
N 4.7017046300 2.2012420964 -2.6655498391
H -2.1972208006 1.2172134688 3.7734100317
H -3.7636494836 0.5007279860 4.2498875440
H -2.3242501498 -0.5453654093 4.0793050597
H -0.5528751770 -0.0105170061 2.7113962510
H 0.2960438436 -0.8068267921 -1.4077423950
H -5.8054157088 -1.2564172558 -0.3609255693
H -4.3421434569 -2.1792565810 -0.8189608501
H -4.6979761451 -1.8584396862 0.9094112655
H -0.8514635353 -1.9257376674 -3.0593620127
H -2.0360767341 -1.1168776203 -4.1262721965
H -0.7238699713 -0.1648347902 -3.3726754523
H 1.7958173067 -1.5513326425 1.0125264154
H 1.6502634890 -0.1125429505 2.0114056229
H 3.4055992213 -1.4881409844 -0.6911829507
H 1.2798085719 3.3452359316 0.2815088607
H 0.6357390875 1.9386344919 1.0131436709
H 5.5250951105 1.7188322945 -2.9906434867
H 4.7958424928 3.1975196526 -2.5432757195
