46
CONF2
C -5.5699148480 -0.7061302722 0.7573163227
O -4.3630671856 -1.2676775563 1.2875489274
C -3.2856007921 -0.4377426699 1.3867087799
C -2.1085763120 -1.0227030549 1.9138176206
C -0.9590057030 -0.2545705821 2.0492127764
C -0.9441251528 1.0957890690 1.6706515275
C -2.1018378227 1.6600810014 1.1533571177
C -3.2683118066 0.8999783998 1.0125370063
C 0.3227711797 1.9115443915 1.8391947448
C 1.5688437451 1.1893022583 1.3847970342
N 2.4385325485 0.8453464281 2.3267688327
C 3.5650112008 0.1788950838 1.9605320086
C 3.8591340881 -0.1641954408 0.6648632224
C 2.9538624397 0.1859306154 -0.3606226436
C 3.1847382576 -0.1329398427 -1.7208556394
C 2.2706970851 0.2215594421 -2.6860530952
C 1.0737256678 0.9250054441 -2.3164370334
C 0.8411771198 1.2458824648 -1.0009104599
C 1.7704562272 0.8855661066 0.0076128549
O 0.2448111148 1.2154571591 -3.3483996770
C -0.9813676544 1.8904978735 -3.0279556464
O 2.3874018745 -0.0373021516 -4.0074562753
C 3.5624487468 -0.7437700144 -4.4375637320
O -2.2080555610 -2.3388767526 2.2524503192
C -1.0302112009 -2.9712366980 2.7699292369
H -5.4215241676 -0.3524186532 -0.2699701228
H -5.9280222215 0.1197912521 1.3834065165
H -6.3000960084 -1.5158418398 0.7647541916
H -0.0537184594 -0.6976653909 2.4484206160
H -2.1076000803 2.7016248084 0.8442658553
H -4.1564714833 1.3650292194 0.6020609388
H 0.2130350852 2.8540240104 1.2899387772
H 0.4620640303 2.1677886813 2.8949413510
H 4.2459012234 -0.0800159625 2.7687214556
H 4.7738853117 -0.6984010797 0.4261850038
H 4.0927318762 -0.6636088269 -1.9810625408
H -0.0645087503 1.7666741719 -0.7234072479
H -1.5040773288 2.0157123469 -3.9760032097
H -1.5892978347 1.2875907673 -2.3427926616
H -0.7810836457 2.8707259626 -2.5801782784
H 4.4667180926 -0.1708527511 -4.2039881602
H 3.4597434329 -0.8516203972 -5.5170824927
H 3.6144779937 -1.7318409157 -3.9669357599
H -0.2154520235 -2.9432048475 2.0367033541
H -0.7046811018 -2.4941442377 3.7018511899
H -1.3134815290 -4.0056813817 2.9659790743
