27
CONF186
C 3.1106546819 -0.2936346019 -0.5750797068
C 4.4228294703 0.1785823209 0.0588167304
C 4.6956285544 -0.4412501475 1.4238895389
O 5.9703858569 -0.0434521522 1.9536082079
C 1.8831531197 0.1624807916 0.2228552123
C 0.5946636564 -0.2118356641 -0.4649419253
C -0.6774811445 0.2900509530 0.2721602686
C -2.0777461967 -0.2382766911 -0.1981797708
C -2.4572389489 -0.0939484174 -1.7037489491
F -2.2421219222 1.1566618548 -2.1327270834
F -3.7613117565 -0.3773664380 -1.8454919137
F -1.7575968821 -0.9487463774 -2.4586527456
F -3.0037116563 0.4581346668 0.5103181845
F -2.1889407162 -1.5467190769 0.1255787264
F -0.7005898671 1.6454554659 0.2028183327
F -0.5855071341 -0.0648054233 1.5825390030
F 0.4843309517 -1.5746628903 -0.5970497516
F 0.5429090605 0.3151772996 -1.7335968115
H 3.0492623423 0.1040324342 -1.5926613008
H 3.1128615918 -1.3869146515 -0.6536661683
H 5.2471665582 -0.0905438436 -0.6141665097
H 4.4231157664 1.2721688280 0.1495801883
H 4.6307052436 -1.5384051766 1.3563600183
H 3.9606374562 -0.1079904628 2.1632389377
H 6.6485869947 -0.3621193895 1.3446418998
H 1.8925557753 1.2507448364 0.3519347978
H 1.8644793741 -0.2915814965 1.2172305291
