15
CONF3
O 1.6572315810 -0.6764385779 1.4242289089
P 1.1646474460 -0.9415107897 -0.0582629005
O 2.5666192232 -0.9543659178 -0.8196473278
O 0.2445822501 -2.0814682153 -0.3272966957
C 0.2458858522 0.6091158230 -0.5517409992
Cl 1.1235097848 2.1090739529 -0.0960836550
Cl -0.0459715775 0.5575403532 -2.3242015145
P -1.3354375853 0.5220776689 0.4407776782
O -2.1815297582 -0.6351450066 -0.2337150583
O -2.2336674110 1.7840993840 0.0585105255
O -0.9312367978 0.3930338708 1.8683132881
H 0.9019789851 -0.3625178740 1.9702924223
H 2.5124046096 -1.4212423060 -1.6652999937
H -1.6195061829 -1.4364997657 -0.3329007223
H -2.0695101230 2.5342476013 0.6470262452
