26
CONF123
C -2.5442198780 -0.7007184045 -0.4329022893
C -1.6619561206 -1.2994991084 0.6585421789
C -0.4182477530 -0.4664396922 0.9746723171
C 0.4720955840 -0.2139835404 -0.2570451316
C 1.8588363827 0.3089381976 0.1318532161
C 2.6802305664 0.7214110765 -1.0824906233
O 3.9190188217 1.3163215179 -0.6654454828
O 1.6919560416 1.4360262524 1.0035198089
O 0.6237341605 -1.3973384138 -1.0466721803
O -0.8941480973 0.7637538098 1.5338830596
O -2.4372952085 -1.4740592238 1.8572042087
O -3.7097828254 -1.5064225554 -0.6347398319
H -2.8232568130 0.3292690756 -0.1657658055
H -2.0075621764 -0.6820385337 -1.3861955953
H -1.3559970097 -2.3052953539 0.3553294733
H 0.1688435743 -1.0210288552 1.7279726977
H -0.0253548346 0.5212238841 -0.9022822200
H 2.3880135892 -0.4979308920 0.6721544291
H 2.1430324081 1.4973071833 -1.6390402541
H 2.8494108080 -0.1384462935 -1.7404245364
H 2.5604620270 1.8568725383 1.0838595133
H 1.0596314008 -2.0692055762 -0.5037606322
H -0.1097624600 1.2954215318 1.7385089842
H -2.5231651936 -0.5954430357 2.2565455699
H 4.4972960195 0.6087159562 -0.3523957582
H -4.0839736869 -1.6579445906 0.2447032057
