40
CONF14
C 1.1734684159 -1.7842010970 -0.8246437627
O 2.4748043314 -1.1237673444 -0.6087898161
C 2.2145034673 0.0907427858 -0.0321301158
C 3.1463032782 0.9282444288 0.5718155895
O 4.4733422192 0.5948579249 0.5148790817
C 2.6454523209 2.0480438842 1.2494191618
C 1.2729674474 2.2835409952 1.3619547911
C 0.3467191080 1.4347786729 0.7401188477
C 0.8706613161 0.4006992404 -0.0128687581
C 0.0934382288 -0.6795454860 -0.7084223210
C -0.4250961118 -0.2398244999 -2.0873377123
C -1.4121040039 0.9151025887 -1.9750749235
N -2.4739838298 0.5994385757 -1.0149980856
C -3.4941048948 1.6449109302 -1.0011069078
C -1.9351798037 0.3026707759 0.3278463964
C -1.1412847414 1.4696195151 0.9880457675
C -1.1060596069 -0.9955338799 0.2131154787
C -0.6047022659 -1.5423372087 1.5196654163
C 0.4007776797 -2.4200051565 1.5098953773
C 0.9476499548 -2.9120687950 0.1937171192
O 2.1615551533 -3.6543516565 0.3197486894
H 1.2309167695 -2.2121672211 -1.8288966523
H 4.9838704278 1.2444506616 1.0166207871
H 3.3512778717 2.7135982822 1.7412172424
H 0.9283363072 3.1180613776 1.9666327788
H 0.4188516269 0.0562555918 -2.7212933594
H -0.9148318278 -1.1015231912 -2.5588574597
H -0.8743839331 1.8444418219 -1.7015109259
H -1.8764018469 1.0973219217 -2.9515778903
H -4.2653698526 1.3991594788 -0.2632063260
H -3.1005507136 2.6511782018 -0.7673653289
H -3.9661111620 1.6988784420 -1.9884576823
H -2.8028049657 0.0947530726 0.9666899658
H -1.3002623004 1.4277719361 2.0730288394
H -1.5736241441 2.4250748017 0.6678602213
H -1.7476299600 -1.7432408968 -0.2781418723
H -1.0545481733 -1.2030356663 2.4504727993
H 0.8084066913 -2.8503850919 2.4215688136
H 0.1726578578 -3.5469625074 -0.2738089155
H 1.9530735799 -4.4746460186 0.7841753600
