18
CONF42
C -2.0135578356 -0.9431622014 0.5492620360
C -0.7377095703 -0.1446315038 0.3138559917
C 0.3752586102 -1.0106630888 -0.2629050529
C 1.6240933058 -0.2306180439 -0.6357462037
O 1.4089393852 0.5282625390 -1.8567782937
N 1.1408696788 1.9342025172 -1.6850433888
O 0.9127685347 2.4731866968 -2.7320029557
O 1.1836266999 2.3922945620 -0.5711709759
O -0.2243423046 0.3832550026 1.5458236451
H -2.7874127194 -0.3124422057 0.9977950752
H -2.4054864886 -1.3404743683 -0.3928758918
H -1.8157512338 -1.7776003854 1.2294610514
H -0.9523954414 0.6787203071 -0.3864366540
H 0.0088924459 -1.5538865255 -1.1407303040
H 0.6541171720 -1.7551521990 0.4945115497
H 1.9363550570 0.4355240622 0.1712692447
H 2.4484970031 -0.9013345929 -0.8968669925
H -0.7567623941 1.1445192215 1.7978873279
