50
CONF17
C 5.1525052044 4.1082549548 2.1379736990
C 4.9631964325 3.1321134874 0.9946216330
O 3.5685384130 2.7705507398 0.8387262312
C 3.1244658462 1.8064225041 1.6949396655
O 3.8426021719 1.2164098491 2.4831732779
N 1.7718475488 1.6124388549 1.5755377881
C 1.2069649789 0.4232382963 2.2028394570
C 1.1234981133 -0.7407658116 1.1965505360
C 0.3732730975 -0.3111719182 -0.0365377383
C -0.7309128718 -0.9322830407 -0.4967777044
C -1.2511103271 -2.2114754383 0.0546261545
C -2.5807927357 -2.4093828644 0.4728236121
C -3.6762031812 -1.3579813148 0.4842754759
C -3.3215258711 0.0592124662 0.0207152827
C -2.8092022511 0.0841281659 -1.3886553070
C -1.5164795689 -0.3996423929 -1.6456637395
N -0.9689824493 -0.4254900775 -2.8661010228
C -1.7043750826 0.0303017184 -3.8860963388
C -2.9958882788 0.5227410452 -3.7408616375
C -3.5522800738 0.5514972625 -2.4666349118
C -2.9632287277 -3.6751774219 0.9329672635
C -2.0613880283 -4.7238234398 0.9695021343
C -0.7517070922 -4.5569818572 0.5378174076
C -0.3712923911 -3.3063016410 0.0808434335
Cl -2.5865687338 -6.2919709107 1.5566145894
C 0.9081128593 0.9589283427 -0.6428998053
C 1.0047383492 2.0691255119 0.4192728034
H 6.2019422659 4.4158441292 2.1899407037
H 4.8839963470 3.6402953152 3.0879821684
H 4.5381449920 5.0011293756 1.9906777317
H 5.5523038578 2.2231787871 1.1457268284
H 5.2282957288 3.5835723272 0.0348731830
H 1.8256426903 0.1495987663 3.0586604983
H 0.1983263434 0.6713954376 2.5594449771
H 2.1511196778 -1.0287264876 0.9327313339
H 0.6500499410 -1.5983398261 1.6798524487
H -4.0778096915 -1.3000689169 1.5040733774
H -4.4980628269 -1.7301479934 -0.1423044070
H -4.2183346093 0.6823716940 0.1036876557
H -2.5644291718 0.4846953982 0.6905858750
H -1.2331259457 -0.0020785586 -4.8670149353
H -3.5486603026 0.8794328542 -4.6033957992
H -4.5544543280 0.9419919840 -2.3085627602
H -3.9832753429 -3.8360328710 1.2680175151
H -0.0548876038 -5.3865371591 0.5467530834
H 0.6387910460 -3.1616490246 -0.2884772378
H 1.9182237776 0.7743257355 -1.0352219524
H 0.2932777647 1.2982910963 -1.4785555559
H 1.4600886322 2.9675563131 0.0041215223
H -0.0049675130 2.3269857548 0.7678126418
