32
CONF2
C -3.2690167874 0.8976395708 0.8359443729
C -3.1242768542 0.0280756704 -0.4179524012
C -3.8395648507 -1.3194415966 -0.2021349270
C -3.7363900182 0.7542709405 -1.6304099289
C -1.6688718654 -0.2249752980 -0.6747560286
C -0.5276778607 0.1308606529 -0.0222134388
C 0.5109774377 -0.4487391353 -0.8044634617
N 0.0377087029 -1.1052091727 -1.8534959255
O -1.3605245706 -0.9605310251 -1.7670548463
N 1.8776693648 -0.4370750784 -0.6161778481
C 2.5431491901 0.2960475159 0.3670059120
O 1.9319359115 1.0368528645 1.1440094295
N 3.8927658971 0.1202774697 0.3885654596
C 4.6003707186 -0.7987148803 -0.5026594806
C 4.7037587294 0.8963161730 1.3207401266
H -4.3305995853 1.0834824745 1.0240632833
H -2.7682092167 1.8623281980 0.7077879247
H -2.8473859748 0.3981499751 1.7138682204
H -4.8994758993 -1.1370609113 0.0020739475
H -3.7624939700 -1.9537550384 -1.0896599786
H -3.4084350875 -1.8546640012 0.6497623218
H -4.7952875664 0.9517626136 -1.4356458578
H -3.2320353686 1.7095645292 -1.8075381618
H -3.6589576571 0.1450446711 -2.5351842382
H -0.4270192628 0.7135838130 0.8741120636
H 2.4073324316 -0.9548544544 -1.3021543774
H 5.6454713262 -0.8361276572 -0.1929142395
H 4.1978627282 -1.8160016795 -0.4347414764
H 4.5708248280 -0.4624760550 -1.5475695116
H 5.2050564784 0.2331898252 2.0360082849
H 5.4666662085 1.4616155198 0.7732046983
H 4.0646728448 1.5905639033 1.8644234717
