22
CONF56
C 2.1860394976 -1.3095718719 0.0834942734
C 1.1652654490 -0.3620086984 -0.5274004673
C 0.0472011051 -0.0210570323 0.4717660284
C -0.7797315572 1.1925742545 0.0257941340
C -1.9428861610 1.4918542950 0.9697440968
O -3.0060725914 0.5432974983 0.8066238204
O -1.2730413730 1.0411877718 -1.3197165374
O -0.7767169557 -1.1796747398 0.6972975753
O 0.6106435063 -1.0019879062 -1.6855787211
O 3.2749493779 -1.5974810564 -0.7978455517
H 1.7098452370 -2.2706532446 0.3022710970
H 2.5471411191 -0.8773900400 1.0279021420
H 1.6736121112 0.5741940125 -0.8128377373
H 0.4972539788 0.2355331664 1.4397589490
H -0.1051469723 2.0587422472 0.0175155927
H -1.5795754078 1.5140360571 2.0072702521
H -2.3664988125 2.4714382446 0.7281963795
H -2.6078555692 -0.3280297071 0.9697284586
H -2.1363573459 0.6044024362 -1.2410630263
H -0.8431828351 -1.6312315952 -0.1601444160
H -0.0432821628 -0.3765524847 -2.0423986660
H 3.7483971553 -0.7716213953 -0.9603776548
