45
CONF48
C -4.4794237681 -1.1340056808 0.1377593307
O -3.7166029536 -0.0614966757 -0.4639108891
C -2.7013616318 -0.4687741291 -1.2518536083
O -2.4064003730 -1.6266580650 -1.4747699100
N -2.0828912644 0.6269230915 -1.8273556773
C -2.1736632141 1.9519937980 -1.2957411798
C -3.1777224067 2.7807834839 -1.7874891011
C -3.3009834842 4.0849134421 -1.3177903154
C -2.4068994374 4.5606449088 -0.3645324301
C -1.4054332467 3.7264201101 0.1268485228
C -1.2708911294 2.4131482426 -0.3228216908
C -0.1686163952 1.5547168105 0.2203348345
O -0.7571798921 0.3273863926 0.7222919199
C 0.1144574812 -0.6335385988 1.0761744425
N 1.4313152149 -0.4621367772 1.0701612759
N 1.9244410265 -1.6604034780 1.5035665399
C 0.9257858102 -2.5530119028 1.7688992712
C -0.2674533526 -1.9250151126 1.5076764943
C 3.3153956988 -1.8540983388 1.6076621830
C 4.1887162230 -0.9994929787 0.9297301453
C 5.5613375754 -1.1886179738 1.0273257369
C 6.0516883539 -2.2372053415 1.7956055275
C 5.1955824004 -3.0939279394 2.4768699735
C 3.8237537033 -2.8952061347 2.3893877992
Cl 7.7900854157 -2.4809569400 1.9155431123
O -0.8275819910 0.3235347658 -2.3844137592
C -0.8981893165 0.4551580617 -3.8177900512
H -3.8334566925 -1.7468637323 0.7709650361
H -5.2427096965 -0.6382575529 0.7363397893
H -4.9398852776 -1.7535925109 -0.6354736054
H -3.8584292324 2.3898027913 -2.5365994196
H -4.0863456862 4.7264024188 -1.7038475219
H -2.4902438111 5.5777885480 0.0042304636
H -0.7172969467 4.0958283137 0.8816698795
H 0.3488576346 2.0675093626 1.0381897298
H 0.5617986849 1.3045708493 -0.5561195819
H 1.1297249071 -3.5627866483 2.0904381894
H -1.2635040997 -2.3298673723 1.5900601332
H 3.7948295893 -0.1926641921 0.3249806172
H 6.2393167669 -0.5268311390 0.5005570369
H 5.5893281426 -3.9003369174 3.0846981454
H 3.1627422765 -3.5468989009 2.9484121545
H -1.6106324154 -0.2647368248 -4.2342670886
H -1.1769246756 1.4766789083 -4.1010868848
H 0.1115655966 0.2340383732 -4.1705159720
