44
CONF21
C 9.2351733140 0.1060277099 1.4711081306
C 8.6797627932 0.8131655715 0.4091828172
C 7.3263222202 0.6717999171 0.1662522199
C 6.4885691605 -0.1342248706 0.9386349987
C 7.0995337689 -0.8112731073 1.9972027730
C 8.4504754739 -0.7173082983 2.2738086946
F 6.3387746252 -1.6173510967 2.7615182665
C 5.0104765214 -0.2204898320 0.7317351075
O 4.2292322883 -0.0342799845 1.6595445764
N 4.6254291438 -0.5232409074 -0.5496722943
C 3.3197221076 -0.5949832759 -1.0996227717
O 3.1904563243 -0.7719224941 -2.3017188603
N 2.3062001824 -0.4612578875 -0.2050742241
C 0.9510876111 -0.4515918527 -0.5964293111
C 0.3824982330 -1.5217576256 -1.2868609765
C -0.9490694903 -1.5372807949 -1.6638262278
C -1.7368647687 -0.4500640398 -1.3128377680
C -1.2195242379 0.6305894443 -0.6061953355
C 0.1236811125 0.6206414302 -0.2573808494
O -3.0499622426 -0.4489846385 -1.7639165650
C -4.0543825771 -0.2286260364 -0.8654300826
C -5.2462646882 0.3235817963 -1.3483389044
C -6.3278796648 0.5277407197 -0.5046468713
C -6.2145528346 0.1851631282 0.8393027001
C -5.0355069729 -0.3742341971 1.3308300242
C -3.9605520320 -0.5809175993 0.4812500193
C -7.3771597681 0.3686333316 1.7648841315
F -8.0246936512 -0.8058251998 2.0062491549
F -8.3006504217 1.2271113250 1.2773332574
F -6.9892771877 0.8418456433 2.9759027698
Cl -5.3721423054 0.7612935794 -3.0340844346
F 1.1367113513 -2.6013731276 -1.5674329705
F 6.7771119692 1.3684444983 -0.8536325861
H 10.2960080243 0.1976275439 1.6765012461
H 9.2741033688 1.4656789745 -0.2195560050
H 8.8699835944 -1.2811111360 3.0987655258
H -1.3630293071 -2.3847500584 -2.1977347700
H -1.8526891675 1.4722062526 -0.3484887485
H 0.5536948699 1.4622648876 0.2759116664
H -7.2398225520 0.9608097520 -0.8976287281
H -4.9537172786 -0.6532950776 2.3756299562
H -3.0427201554 -1.0199817754 0.8559336248
H 2.5578279438 -0.2006715069 0.7463770910
H 5.3469083977 -0.6698148755 -1.2434131644
