33
CONF25
C -5.8505511316 0.5863059063 1.4064914289
C -5.0015937023 1.4383052365 0.4649596018
C -3.5617579209 0.9504317302 0.3124967577
S -3.5434963839 -0.7042867892 -0.4864513483
C -1.8090403308 -1.0407155897 -0.7064819471
C -1.5024095926 -2.2255080746 -1.4111415478
C -0.1926353602 -2.6174769446 -1.6456735428
C 0.8359037659 -1.8060259998 -1.1677903898
C 0.5105042936 -0.6249789285 -0.4663129513
C -0.7936045807 -0.2153474770 -0.2173484370
N 1.7291562889 -0.0597438483 -0.1337912061
C 2.6880581524 -0.9000647865 -0.6339920943
N 2.2139067354 -1.9538335280 -1.2589350014
N 4.0432888058 -0.6641962579 -0.4946454571
C 4.6002737718 0.4146015370 0.1431470113
O 3.9759907688 1.3171695963 0.6748106220
O 5.9440665210 0.3268865660 0.0940216876
C 6.6442092308 1.4169853917 0.7392376449
H -6.8379813362 1.0351858564 1.5484102863
H -5.3731291180 0.4987279212 2.3884664648
H -5.9960499485 -0.4247235432 1.0145466822
H -4.9487422493 2.4646400225 0.8485217416
H -5.4739028634 1.4979073073 -0.5227801714
H -3.0794723779 0.8809463335 1.2946324807
H -2.9904867447 1.6417546113 -0.3161182668
H -2.3160204026 -2.8429798261 -1.7795824100
H 0.0255736101 -3.5305457219 -2.1893890661
H -0.9960209209 0.6952432229 0.3319313400
H 1.9237751995 0.7911385523 0.3736855906
H 4.6536117304 -1.3580655348 -0.9027572479
H 7.7014825943 1.1887279066 0.6118590269
H 6.3836364374 1.4587298684 1.7992638565
H 6.3934585504 2.3648055853 0.2574300630
