78
CONF279
C -0.7964966166 0.0602750995 -0.7660680456
C -0.1348118441 1.2576610045 -1.4370166021
O -0.5201631857 1.1341826390 -2.8404335982
C -0.8473556996 -0.1569478162 -3.1348875360
O -1.1166894481 -0.5087183257 -4.2536915334
C -0.7326433725 -0.9812529641 -1.8693541165
C -1.7180383465 -2.1202685540 -1.5999664761
C -3.1779197587 -1.6965784168 -1.7293893294
C -3.9477331590 -1.3854213981 -0.6075127986
C -5.2708881077 -0.9609315159 -0.7475060981
O -6.1001569085 -0.6439707776 0.2879462731
C -5.5743721098 -0.7801415981 1.6018306290
C -5.8297772110 -0.8334537286 -2.0226440027
O -7.1175708497 -0.4109882090 -2.1544171498
C -5.0496514903 -1.1502610284 -3.1398004625
O -5.7043239344 -0.9833901128 -4.3337612793
C -4.9358345314 -1.1578784040 -5.5249709863
C -3.7380886615 -1.5907047652 -3.0030253394
C -1.4019822792 -2.6683203311 -0.2163398394
C -1.8470339217 -3.9742687094 0.0725112207
C -1.6019995284 -4.4750754185 1.3249247154
C -0.9486430292 -3.7256839053 2.2985257045
O -0.8775286254 -4.4446226070 3.4672261218
C -1.2812399241 -5.7752594566 3.1055655070
O -1.9647344119 -5.6924217473 1.8432679501
C -0.5211259193 -2.4481825567 2.0528359404
C -0.7519904633 -1.9097005107 0.7679020841
C -0.2152771831 -0.5111934602 0.5146159250
O 1.2334568696 -0.5951241580 0.4104038031
C 1.9348833372 0.1653089043 1.3248336352
O 1.7966634626 1.5525710802 0.9604613576
C 2.5225610400 2.4015011779 1.8396279760
C 2.2976107922 3.8549005346 1.4645235211
O 3.1217872453 4.6633455259 2.3195375344
C 4.5025253554 4.3457000131 2.2499694271
O 4.7668869186 2.9781569551 2.5401224249
C 4.0092117804 2.0993454512 1.6975275460
C 4.2647814463 0.6717619695 2.1209115975
O 5.6190107879 0.2659652108 1.9226558707
C 3.4014507053 -0.2674447858 1.2795326933
O 3.4674790883 -1.5928534756 1.7792360516
C 5.1199453157 4.7536585211 0.9358113798
C 6.1787231444 4.1844671358 0.2800088786
C 6.5569204642 4.8943437546 -0.8898003119
C 5.7889213095 6.0042414248 -1.1064346075
S 4.5839415134 6.1949988431 0.1215063406
H -1.8543924008 0.2910020719 -0.5794761176
H 0.9550644788 1.2143363052 -1.3715860064
H -0.4890802798 2.2287953030 -1.0867413376
H 0.2846177036 -1.4061915710 -1.8898197303
H -1.5367990980 -2.9150148845 -2.3338138240
H -3.5143972796 -1.4979535871 0.3779038387
H -5.2725035395 -1.8157327642 1.8083221460
H -6.3835009441 -0.4957926057 2.2760790342
H -4.7157296302 -0.1136227007 1.7618784033
H -7.3049753526 -0.3831602320 -3.1030112891
H -4.6070125164 -2.1990820941 -5.6310164125
H -5.6019105109 -0.9013521970 -6.3497086890
H -4.0617606374 -0.4957133842 -5.5295278298
H -3.1347334090 -1.8211882358 -3.8706290539
H -2.3771541595 -4.5540831492 -0.6752856316
H -1.9657132375 -6.1659006374 3.8629629527
H -0.3876266126 -6.4081499882 2.9923583754
H -0.0076769622 -1.8743279111 2.8162079084
H -0.4595188634 0.1358311089 1.3682415745
H 1.5438242834 0.0334602719 2.3538750845
H 2.2137447352 2.2427647066 2.8876475268
H 1.2680388617 4.1731300513 1.6442565282
H 2.5446431546 4.0078554400 0.4035151221
H 4.9532660763 4.9017442379 3.0790992666
H 4.2986338733 2.2338824769 0.6438428271
H 3.9826536128 0.5565642890 3.1814578168
H 6.1695624007 0.8049132757 2.5029348981
H 3.7351883995 -0.2164889104 0.2300080040
H 4.4044179719 -1.8125711236 1.8579608246
H 6.6630322477 3.2812011825 0.6309227565
H 7.3632798210 4.5921417278 -1.5467099674
H 5.8518279529 6.7148490387 -1.9189511063
