46
CONF114
C -0.9608354909 -1.0355096806 2.2242215395
C -1.2819189187 -2.0056968238 1.1124436082
C -2.7113397191 -2.2444669652 0.6889009577
C -1.7350432497 -1.5059030716 -0.2546093538
C -1.8995444372 -0.0735091717 -0.5597667808
O -2.3583419323 0.7892986415 0.1648203583
O -1.4561567799 0.1786893770 -1.8188894431
C -1.5263472139 1.5645841642 -2.2440990256
C -0.4503741892 2.4108191045 -1.6172745049
C 0.8383937979 1.9013338089 -1.4620300428
C 1.8329422020 2.7146036851 -0.9269248946
C 1.5701893595 4.0314920266 -0.5607668170
C 0.2831445408 4.5319928124 -0.7278985742
C -0.7286722397 3.7262562611 -1.2435110171
O 3.1429562440 2.2838979101 -0.8161564436
C 3.3892850348 0.9813502504 -0.4141530439
C 2.6997521869 0.4011014790 0.6488045028
C 3.0521118066 -0.8807120611 1.0604630274
C 4.0783364738 -1.5756273471 0.4220010753
C 4.7599484275 -0.9775645307 -0.6354124786
C 4.4177591530 0.3036241025 -1.0605859925
C -3.8335218585 -1.5486656357 1.3184000878
C -5.0470962331 -2.0694267216 1.5026346619
Cl -6.3276072718 -1.1825046731 2.2920001514
Cl -5.5207837084 -3.6715884636 1.0011033759
C -0.3675285918 -3.2114268881 1.0779255001
H -1.0795330584 -1.5403996708 3.1889879770
H 0.0822697395 -0.7140928899 2.1383650255
H -1.5884383499 -0.1454063578 2.2144635206
H -2.9267345523 -3.2516565370 0.3467536696
H -1.3980762806 -2.0959902434 -1.0998493658
H -2.5168754592 1.9693880359 -2.0214755400
H -1.3939283028 1.5100010387 -3.3282894369
H 1.0663463177 0.8818230447 -1.7557004514
H 2.3674102610 4.6420031870 -0.1503894903
H 0.0656737406 5.5547929512 -0.4368512123
H -1.7361191460 4.1159957789 -1.3529662660
H 1.9065628959 0.9488281855 1.1475404537
H 2.5265527878 -1.3336774068 1.8953607270
H 4.3467517238 -2.5741554379 0.7506868796
H 5.5617237378 -1.5094220381 -1.1380288493
H 4.9383417015 0.7837009829 -1.8826511208
H -3.6858591229 -0.5339960331 1.6695231134
H 0.6694843161 -2.8948812093 0.9206486180
H -0.6441652583 -3.9025146502 0.2771188661
H -0.4210937555 -3.7467823358 2.0321360399
