56
CONF67
O 5.3573832235 1.8934260345 0.6407082779
C 4.3952999539 2.4968010900 -0.2250990853
C 3.0581254727 2.6614779003 0.4864754234
N 2.6042053682 1.3809549273 1.0400014245
C 1.5836515238 1.5793224173 2.0726633774
C 1.1615361305 0.2447822564 2.6658329626
N 0.6131173486 -0.6209967891 1.6215577019
C 0.1048243046 -1.8760615988 2.1705043308
C -0.8355547305 -2.6090670388 1.2058120636
C -1.9116948455 -1.6618081852 0.6472978775
N -1.5749523935 -1.1971293742 -0.7048630960
C -1.5749296394 -2.1503543244 -1.7420727198
C -2.2129900312 -3.3906970816 -1.6059603870
C -2.1871824924 -4.3242725130 -2.6385695354
C -1.5493818059 -4.0372947499 -3.8391695320
C -0.9207259557 -2.8049073277 -3.9959048105
C -0.9107015664 -1.8865692210 -2.9517314335
S 0.0465426522 -0.3985840750 -3.1133591495
C -0.9587956360 0.6817247226 -2.1330535470
C -0.9717680191 2.0400540885 -2.4268809807
C -1.6308414718 2.9397305130 -1.5953063145
C -2.3264094336 2.4410205036 -0.5021453897
C -2.3637339925 1.0741009540 -0.2278939748
C -1.6459415825 0.1681687145 -1.0142016357
C -3.0587112601 3.3541348556 0.4321769029
F -3.0435797066 4.6419541148 0.0262538299
F -4.3631959607 2.9971882161 0.5759924109
F -2.5226749135 3.3283490701 1.6847556181
C 1.6243486311 -0.8307709573 0.5846837515
C 2.0653949174 0.5005716385 -0.0031397516
H 4.8565760592 1.2302435873 1.1424378927
H 4.2803032163 1.9053644215 -1.1467324225
H 4.7789034488 3.4816612837 -0.5119865830
H 3.1940245236 3.3587412370 1.3222247159
H 2.3132604589 3.1035638805 -0.2043105145
H 0.6882241814 2.0868994396 1.6586670918
H 1.9986455048 2.2146472804 2.8636005891
H 2.0333546002 -0.2208520531 3.1691470636
H 0.3893948562 0.4194562380 3.4246200226
H 0.9227764266 -2.5556998084 2.4809344861
H -0.4622823214 -1.6277664215 3.0775021257
H -0.2771527502 -3.0674950380 0.3837489407
H -1.3054725129 -3.4338892763 1.7530850450
H -1.9459348596 -0.7867431792 1.2940219381
H -2.9109333326 -2.1165096243 0.6649318320
H -2.7252728485 -3.6428039662 -0.6864317030
H -2.6804385439 -5.2802470188 -2.4960782982
H -1.5358293976 -4.7601993740 -4.6473981683
H -0.4114276713 -2.5596920809 -4.9227043667
H -0.4327375444 2.3991855144 -3.2976309284
H -1.6073588093 4.0011705332 -1.8075627160
H -2.9548514367 0.7287772376 0.6106081334
H 1.1991899475 -1.4390079121 -0.2210998517
H 2.5078108306 -1.3648463975 0.9900549348
H 2.8338353783 0.3135017643 -0.7605492398
H 1.2027278239 0.9772914704 -0.5071066028
