32
CONF17
N 4.9332659601 -0.8901879820 0.5454977309
C 3.5965228231 -0.8846825901 0.6523599320
C 2.7754465201 -0.0329615568 -0.1149538083
N 3.0676514929 0.9253224369 -1.0675000700
C 1.8927808234 1.3963167976 -1.4180721577
N 0.8382951320 0.7984546322 -0.7580931240
C -0.5662986992 1.1033282600 -0.9570229099
O -1.1465417539 1.4448230310 0.2880268178
C -2.5237535688 0.9511001306 0.3516788165
C -2.6641576630 0.0168375921 1.5413434691
O -2.0017180171 -1.2293482971 1.3668063120
C -2.8031952075 0.3096255021 -1.0059034896
O -3.3813587864 1.2967856329 -1.8601408474
C -1.3972822205 -0.0626563628 -1.5044093047
O -1.2781471076 -0.0961583942 -2.9183593498
C 1.3990810314 -0.1299746894 0.0943748761
N 0.7922483516 -0.9553258420 0.9607338033
C 1.6696721913 -1.7145657938 1.6288463740
N 3.0023322276 -1.7273860276 1.5279029977
H 5.3985309462 -0.2626345838 -0.0886988009
H 5.4826143960 -1.5057548294 1.1230179496
H 1.7144006063 2.1742858977 -2.1507919239
H -0.6018984436 1.9414633535 -1.6687018587
H -3.1834440027 1.8158038083 0.4965486318
H -3.7302219162 -0.1974071393 1.6824050542
H -2.3038171511 0.5429381892 2.4385747500
H -1.0334330699 -1.0623428110 1.2825931362
H -3.4549054870 -0.5691418454 -0.9157151672
H -3.1974520045 1.0164907183 -2.7696867640
H -1.0784676513 -1.0061150984 -1.0495906234
H -1.4577577174 -0.9966795509 -3.2174602372
H 1.2410082725 -2.4102521704 2.3492328567
