55
CONF3
C -3.1218299042 0.8465084982 -1.3717625482
C -2.4553354664 0.3496352522 -0.0668774349
C -2.8555837011 1.3051017522 1.0756017403
C -4.2912388953 1.1018100889 1.5531596010
C -4.5314020752 -0.3356446138 1.9651448201
O -5.3226620136 -0.6430701119 2.8449628497
C -3.8172016170 -1.3526760614 1.1847006856
C -2.9287776423 -1.0643482116 0.2129368449
C -2.4142963384 -2.1443021066 -0.6998797853
C -0.8948901565 -2.1031791118 -0.9047227487
C -0.4376825925 -0.6908253065 -1.2836921071
C -0.8999709815 0.3538737998 -0.2573880871
C -0.1109092949 0.2524068379 1.0743285859
C 1.1571769858 -0.6102097827 1.0069125831
C 1.9884070652 -0.6408598903 -0.2927914186
C 1.0697266585 -0.5581444781 -1.5685804387
C 1.4040517919 0.7886972423 -2.2640707302
C 2.1286436227 1.6379005621 -1.2178007040
C 2.9623748265 0.5846420988 -0.4821271182
C 3.6326116039 1.0901243738 0.7608082162
O 3.0513561142 1.6980115934 1.6517682141
C 5.1140355915 0.8368816413 0.9036411319
O 5.6376372930 1.3092775224 2.1119735459
C 2.8057330751 -1.9385259015 -0.2845360853
O 0.1458306471 1.5864251656 1.5368360681
H -2.9289380587 0.1920079210 -2.2237957973
H -2.7441746080 1.8447042450 -1.6175166424
H -4.2067996940 0.9102952127 -1.2522975944
H -2.6929820895 2.3384493081 0.7490151048
H -2.1986484202 1.1573611136 1.9354650778
H -4.5297689477 1.7507955701 2.4000270789
H -5.0182722533 1.3339446533 0.7625960871
H -4.1121045317 -2.3817376819 1.3790230575
H -2.7295053658 -3.1232341731 -0.3257287170
H -2.9028184724 -2.0157598737 -1.6773569332
H -0.6113635413 -2.8086449205 -1.6956426356
H -0.4098015406 -2.4507597014 0.0110556279
H -0.9292636137 -0.4610776599 -2.2390589694
H -0.6598580275 1.3470249706 -0.6549861426
H -0.7523930102 -0.2378577052 1.8237554556
H 1.7914069965 -0.3535171405 1.8626668443
H 0.8515904785 -1.6411812114 1.2041770051
H 1.3439143261 -1.3835385368 -2.2377612275
H 0.5106417354 1.2838992260 -2.6581767153
H 2.0723912572 0.6124240143 -3.1143869370
H 2.7485589337 2.4253684619 -1.6579765524
H 1.4278594810 2.1069805343 -0.5206300311
H 3.7524063284 0.2413675864 -1.1656867015
H 5.6126380616 1.3095681862 0.0375374903
H 5.2818067780 -0.2495017346 0.7940822600
H 4.8975389792 1.7435382337 2.5679914655
H 2.1424096564 -2.8096320120 -0.2837392567
H 3.4386198529 -2.0057921957 0.6086442591
H 3.4490412303 -2.0076177503 -1.1683823342
H 1.0900625783 1.6726123870 1.7398356024
