26
CONF16
C -4.1367934118 0.0950818418 -0.6927218686
N -3.1482446755 0.0777751166 0.3918184291
C -1.7830670006 0.1417588915 -0.1310507265
C -0.7588860654 0.1855511294 0.9960616670
O -1.0173265773 1.3966551316 1.7293712051
C 0.6500010531 0.1352351254 0.4499228336
C 1.2440197618 1.2629403343 -0.1176622959
C 2.5262435450 1.1911106518 -0.6579445049
C 3.2271224428 -0.0085683486 -0.6419153778
O 4.4855533633 -0.0608427459 -1.1736796824
C 2.6345182629 -1.1463711300 -0.0743709003
O 3.3965583574 -2.2852684572 -0.0931145851
C 1.3588399820 -1.0692975690 0.4705632078
H -4.0433890151 -0.8208016556 -1.2877806490
H -4.0225280186 0.9540734403 -1.3771004620
H -5.1462470390 0.1225397369 -0.2708148579
H -3.2945095104 0.8980370447 0.9725243550
H -1.5917639107 -0.7552539109 -0.7340149454
H -1.6134931800 1.0180236794 -0.7873095537
H -0.9221172994 -0.6851104484 1.6493059920
H -0.3970052121 1.4279382247 2.4689743568
H 0.7065876294 2.2051550269 -0.1338984244
H 2.9969283176 2.0650431060 -1.0979215243
H 4.8235143922 -0.9634942066 -1.0809169210
H 2.9093329548 -3.0162001015 0.3096172380
H 0.9161509646 -1.9590287189 0.9140580953
