40
CONF23
C 3.7131390670 0.9238655663 -1.9412138705
C 2.5184223025 0.1609925559 -1.4199626610
O 2.3688287988 0.4015153786 0.0163200017
P 1.3182041183 1.4360471432 0.6100351246
S 0.4719209385 2.7222278269 -0.5635047407
O 2.1895728487 1.9940311787 1.8260051970
C 1.6302503140 2.9989839171 2.7288650671
C 2.7429499261 3.4421200478 3.6475075976
O 0.2630900307 0.5122736040 1.5014896981
C -0.6569192931 -0.3065844706 0.9162250050
C -1.7082533629 -0.7649915965 1.7048582484
C -2.6133349737 -1.6095244987 1.0783354516
N -2.4745049257 -1.9537031918 -0.2190088817
C -1.4292405381 -1.4567455266 -0.8755950367
N -0.4957640834 -0.6394974865 -0.3506380121
C -1.2659287349 -1.7675817822 -2.3443264357
C -1.9698165620 -3.0507133318 -2.7750648820
C -1.7623925763 -0.5573693532 -3.1554310028
C -3.7960723030 -2.1760739762 1.7983897640
H 4.6212006195 0.6465289845 -1.3989767045
H 3.5537240303 2.0012933301 -1.8423539789
H 3.8557050066 0.6908104273 -3.0014622281
H 2.6487278735 -0.9206663597 -1.5044844461
H 1.5940139578 0.4466660074 -1.9284788039
H 1.2439094022 3.8288649385 2.1274912905
H 0.8035781362 2.5419969264 3.2839433511
H 3.1292108916 2.5992887161 4.2267031809
H 2.3583160903 4.1947653881 4.3421814181
H 3.5626442861 3.8838571073 3.0749291303
H -1.8033276827 -0.4717855422 2.7429553401
H -0.1868283686 -1.8664685191 -2.5175164789
H -1.6395738883 -3.9069101673 -2.1797064246
H -1.7494309518 -3.2545396527 -3.8274736852
H -3.0530651476 -2.9596935954 -2.6604251831
H -1.2375040024 0.3567245775 -2.8623658009
H -1.5973233685 -0.7283545753 -4.2237608931
H -2.8354811215 -0.4090082496 -2.9928960237
H -3.8115679999 -1.8770601212 2.8479391801
H -4.7184469350 -1.8373282608 1.3154215003
H -3.7826330153 -3.2682533485 1.7317556318
