82
CONF117
C -3.5631806274 1.0803930460 -3.0880733732
C -2.3158873563 1.4559349552 -2.3336237878
C -1.2381975649 1.9204172669 -2.9773450836
C -2.3321568987 1.3670561353 -0.8234576152
C -3.1403533142 2.5276583483 -0.1952676370
C -3.4505429464 2.0397885962 1.2181337202
C -3.7935515041 0.5466913685 1.0459943574
C -2.9720517291 0.0889083213 -0.2081025736
C -2.1352546953 -1.1844593768 0.0713754296
C -1.3615509666 -1.6788830409 -1.1507941542
C 0.0452033399 -1.1087768927 -1.2573140453
C 0.8981125891 -1.4828304029 -0.0323196417
C 2.4521229344 -1.1809987734 -0.1961971981
C 2.8635852046 -1.2380469235 -1.6808641057
C 4.3722134511 -1.0150813257 -1.8994050468
C 5.0209016414 -0.0902295659 -0.8628695582
C 4.0405297869 0.9741945050 -0.3405318505
C 2.8379055019 0.2347932466 0.3703502166
C 1.6123447172 1.1495469686 0.4174128666
C 0.4720200115 0.6379680645 1.3003624406
C 0.2582701401 -0.9029550783 1.2709829866
C -1.2866616605 -1.3051086873 1.3891479496
C -1.9759825802 -0.4869942066 2.5161670372
C -3.4741771229 -0.2902383495 2.2945495688
C -1.4046123521 -2.7983210450 1.7884344512
C 0.9700058642 -1.4481533416 2.5309162875
C 4.7565324898 1.8305834699 0.7159175306
C 3.6181850103 1.9111770288 -1.4890024332
O 6.2505985588 0.4613121028 -1.3744114250
C 3.2317747492 -2.3146865317 0.5120420966
C -5.2824173679 0.3845468155 0.6998955856
O -6.1801846998 0.8034565352 1.7378164347
H -3.6938857714 -0.0076513346 -3.1202450421
H -3.5180171282 1.4429251552 -4.1180387462
H -4.4620587600 1.4889927318 -2.6124204689
H -0.3316325845 2.1874575108 -2.4388293339
H -1.2327612002 2.0489269655 -4.0566421906
H -1.2993396519 1.4745920120 -0.4879864105
H -2.5782836498 3.4666333748 -0.2214167526
H -4.0698556673 2.6869167401 -0.7549286839
H -2.5629925805 2.1554754469 1.8516145599
H -4.2682500547 2.5889716475 1.6968439917
H -3.7042186810 -0.2594411592 -0.9491403262
H -2.9358387062 -1.9200901693 0.2268551255
H -1.2801516084 -2.7734754815 -1.1093485909
H -1.9301663319 -1.4473283535 -2.0608868805
H -0.0031483666 -0.0267375742 -1.3992308016
H 0.4949579362 -1.5173770862 -2.1655370557
H 0.8321762954 -2.5777166435 0.0429429928
H 2.3084032637 -0.4814601239 -2.2402592042
H 2.5766038855 -2.2080876302 -2.1053778547
H 4.9136230171 -1.9673525081 -1.9108429081
H 4.5163208192 -0.5700281854 -2.8927881076
H 5.3533330692 -0.6659614988 0.0074518030
H 3.1774103175 0.0799662555 1.4033583786
H 1.9042986831 2.1424852370 0.7778330257
H 1.2533989719 1.3011734506 -0.6060077775
H -0.4379818675 1.1659465781 1.0146391011
H 0.6670557856 0.9407547004 2.3363113178
H -1.8242004879 -0.9904719981 3.4778121385
H -1.5187791847 0.4992551783 2.6195133058
H -3.9730272630 -1.2677114378 2.2180257819
H -3.8990944150 0.2065852463 3.1768370024
H -0.9548331829 -3.4633311519 1.0447221320
H -2.4614595373 -3.0709547568 1.8784991373
H -0.9384083874 -3.0031215796 2.7536382424
H 1.9478357348 -0.9820082376 2.6604385040
H 1.1117978504 -2.5308409617 2.5030093194
H 0.3862508977 -1.2013985303 3.4239547046
H 5.5600704707 2.4175647718 0.2614041083
H 5.1941988116 1.1983883672 1.4970179654
H 4.0565522011 2.5254572026 1.1922159423
H 4.5079986715 2.3380289053 -1.9649410056
H 3.0341968290 2.7538954573 -1.1100620961
H 3.0275087270 1.4154756699 -2.2628394010
H 6.0633797898 0.8556188669 -2.2356834200
H 2.8778982058 -3.2857654235 0.1465993395
H 3.1093062706 -2.2987637952 1.5937908945
H 4.3028541001 -2.2690165310 0.3102846409
H -5.5344505706 0.9975011437 -0.1732552040
H -5.4695100091 -0.6690242448 0.4362816692
H -6.0886293545 0.1874648341 2.4748945123
