59
CONF253
C 7.4157845481 -2.1367055888 -1.0252030359
C 6.7975951391 -0.8917009427 -1.6674286288
C 5.4711537635 -0.7394765593 -0.9102204499
C 5.7566610598 -1.2422285664 0.5428543542
C 7.1635926019 -1.8938673355 0.4660852092
C 4.6984307487 -2.2483174045 0.9952677599
C 3.3236934234 -1.6422461357 1.0925625864
O 2.3060884688 -2.2748406924 0.8485138137
N 3.2446546020 -0.3076880915 1.5063733372
C 4.3563536301 0.5110045053 1.7332671472
O 4.2059409940 1.6766541267 2.0706628730
C 5.7229531726 -0.0989763748 1.5534722153
C 1.9056026419 0.2994516528 1.6161891512
C 1.4706107657 0.9292378916 0.2927685622
C 0.0526406141 1.5067681682 0.3603785033
C -1.0164757375 0.4160417849 0.2937941088
N -2.3633280259 0.8944788041 0.6309982989
C -3.2862810360 -0.2431768971 0.7345850895
C -4.6832037953 0.2282835835 1.1260298733
N -5.1762648783 1.1953157201 0.1456454479
C -4.2654051934 2.3315141013 0.0109010813
C -2.8676196241 1.8475642801 -0.3661163805
C -6.0290762977 0.8323107189 -0.8583430391
N -6.2272054642 1.7208548506 -1.8632627591
C -7.1070467870 1.3705496096 -2.7988871895
C -7.7982862951 0.1644179518 -2.7823280559
C -7.5133638696 -0.6781862653 -1.7138617474
N -6.6426686159 -0.3725249418 -0.7542697890
H 8.4759259535 -2.2705359622 -1.2606241024
H 6.8790527370 -3.0332394460 -1.3609044822
H 7.4422760300 -0.0240657984 -1.4785728403
H 6.6585552621 -0.9772714175 -2.7492600066
H 4.7094198840 -1.3760022532 -1.3764777622
H 5.0892672745 0.2869988078 -0.9252986225
H 7.2278178978 -2.8002148212 1.0765310553
H 7.9100815969 -1.1856669981 0.8461828770
H 4.6292383520 -3.1037936694 0.3181909165
H 4.9525735215 -2.6323655536 1.9939506062
H 6.0482550712 -0.4604015226 2.5402357417
H 6.3979555258 0.7134879259 1.2686299134
H 1.9517399662 1.0591358079 2.3988388810
H 1.2202745770 -0.4899424774 1.9275772580
H 2.1817575590 1.7225247743 0.0380908380
H 1.5280728309 0.1753839217 -0.5029611667
H -0.0747356351 2.2099418680 -0.4688902991
H -0.0729438103 2.0811312956 1.2880651321
H -0.7735870205 -0.3787450742 1.0098562842
H -0.9970909009 -0.0484284394 -0.7131885564
H -3.3527484767 -0.8004381147 -0.2223309688
H -2.9110070310 -0.9336131525 1.4992666027
H -4.6417115592 0.7279832118 2.1024618796
H -5.3673168812 -0.6163516066 1.1916893283
H -4.6435335862 3.0228523159 -0.7407164822
H -4.2239375608 2.8473784236 0.9789151053
H -2.9015356437 1.3911777508 -1.3770719392
H -2.2015368327 2.7148624046 -0.4117305065
H -7.2628974494 2.0895033704 -3.6029339061
H -8.5077162910 -0.1041781067 -3.5547956703
H -8.0040845511 -1.6470915809 -1.6242203978
