21
CONF5
C 0.8528323221 -1.4082158923 -0.3795256700
C -0.0543252892 -0.1881738326 -0.1173366817
C 0.5462068922 1.0688467134 -0.7482783677
O 1.8674241668 1.2741935401 -0.2062311803
C -1.3956602476 -0.5047733708 -0.8098334223
O -2.2887539290 0.6084815752 -0.9048539667
C -0.2535612934 -0.0314438921 1.3908175877
O -1.2207109952 1.0134888863 1.6251702008
O 2.0492371198 -1.4352298253 0.4035069954
H 1.0896305829 -1.4369236558 -1.4549827490
H 0.3065495060 -2.3259442215 -0.1305517544
H 0.6000886343 0.9265987184 -1.8375617225
H -0.0833930094 1.9421376368 -0.5430132028
H 2.2756406326 2.0059583192 -0.6838524571
H -1.2037623136 -0.8300378797 -1.8394547587
H -1.8720066182 -1.3416771901 -0.2746788869
H -2.3580899847 0.9636919294 -0.0045493420
H -0.6162277536 -0.9849391945 1.8019011277
H 0.6946068469 0.2193436627 1.8797666424
H -1.4093949747 1.0389402180 2.5707044301
H 2.4736700065 -0.5743219434 0.2628371780
