15
CONF16
C -1.5702887667 0.8239075617 -0.2202189269
C -0.6803842169 0.1077093338 0.7920821006
C 0.8600849992 0.3026966604 0.6740057926
C 1.5345997749 -0.0335198845 -0.6886251842
F 2.8697075784 -0.0104038282 -0.5282667294
F 1.2121542592 0.8764545451 -1.6156864267
F 1.1817148916 -1.2520534688 -1.1172983272
F 1.4560204532 -0.4708210904 1.6184392737
F 1.1436254593 1.6038453257 0.9444217287
F -0.9290140321 -1.2368868456 0.7663382443
F -0.9975011030 0.5568539446 2.0474853649
O -1.5165523618 0.2173533287 -1.4945265520
H -1.2351440436 1.8607737262 -0.3164482276
H -2.5812533112 0.8206268256 0.2084577030
H -2.0254377551 -0.6031113029 -1.4593773382
