23
CONF2
C -2.2085053266 0.5852052969 -0.3742307448
C -1.3617629116 -0.4325280041 0.0387017529
C -1.4515889730 -0.9370947768 1.3363718220
C -2.3808624076 -0.4143993916 2.2236978059
C -3.2297536294 0.6093942915 1.8102442154
C -3.1473566427 1.1072312850 0.5087823926
Br -4.2801099097 2.4972507656 -0.1152377836
Br -4.4857618119 1.2785483627 3.0685336862
Br -0.3168555111 -2.3543520471 1.8888392929
O -0.4943139209 -0.9769667695 -0.8845106481
C 0.8371531274 -0.6666048628 -0.7853301969
C 1.3071790604 0.4069934359 -0.0380310569
C 2.6699426401 0.6804631968 0.0035187095
C 3.5693186317 -0.1129638297 -0.7066370102
C 3.0971993672 -1.1839717067 -1.4617227922
C 1.7402365801 -1.4596847357 -1.4966581067
Br 1.1061041900 -2.9333214480 -2.5141038292
Br 5.4435225619 0.2062173521 -0.6882348425
Br 3.2417243367 2.1588846562 1.0533097044
H -2.1237319075 0.9618078020 -1.3869325835
H 0.6130636758 1.0319056085 0.5116918503
H -2.4535010468 -0.8057013234 3.2307780391
H 3.7911908818 -1.8053791690 -2.0139949602
