78
CONF242
C -0.9963598391 -0.0237871642 -1.9654183034
C -0.3958827979 0.0660588776 -3.3624821744
O -1.1487268079 -0.9350990070 -4.1280510406
C -1.7006743681 -1.8590125502 -3.2947910081
O -2.3079942934 -2.8101549603 -3.7265349524
C -1.3522482731 -1.4996548293 -1.8719668058
C -2.3407798559 -1.7800983747 -0.7371839323
C -3.7636412807 -1.3277674723 -1.0491854274
C -4.6388914965 -2.2240313925 -1.6648132773
C -5.9290571077 -1.8133216483 -1.9913065285
O -6.8789138564 -2.5911689191 -2.5954765298
C -6.5016647497 -3.9229888887 -2.9679529280
C -6.3628409363 -0.5137919474 -1.7040873975
O -7.6272173466 -0.0998709922 -2.0135587000
C -5.4872443959 0.3765059987 -1.0734331953
O -5.9987187450 1.6160250250 -0.8187211938
C -5.1308313145 2.5593342402 -0.1803895390
C -4.1937352866 -0.0342271276 -0.7455092226
C -1.8137150900 -1.1079483526 0.5261757137
C -2.4079079796 -1.5032744337 1.7420177821
C -2.0458491385 -0.8348646972 2.8850248736
C -1.1373259747 0.2177820209 2.8617454266
O -0.9662284688 0.7195900560 4.1245258940
C -1.8251270035 -0.0593543330 4.9860340768
O -2.4870784883 -1.0456586443 4.1617337383
C -0.5447890290 0.6275248871 1.6949621422
C -0.8771692801 -0.0620860817 0.5056930489
C -0.1633370125 0.3639790829 -0.7630158864
O 1.1204326183 -0.3141232223 -0.9435795066
C 2.0106176123 -0.2821650413 0.1190203146
O 2.4440148404 1.0717076309 0.3185280387
C 3.3442261917 1.1283569604 1.4215189948
C 3.7207354640 2.5729238364 1.6935589829
O 4.6910879393 2.5943970205 2.7577056024
C 5.8380001685 1.8007953770 2.5059607920
O 5.5138307891 0.4471616452 2.2027623428
C 4.6165102352 0.3536393572 1.0858847952
C 4.2888529424 -1.0976320197 0.8153921221
O 5.4726279854 -1.7660020144 0.3888419787
C 3.2036104735 -1.1617403631 -0.2612185659
O 2.8183004009 -2.5302688847 -0.3698499229
C 6.7244448828 2.4190833310 1.4531377064
C 6.8092731723 3.7327327310 1.0764844818
C 7.8377102046 3.9760149897 0.1253329625
C 8.5349877620 2.8466218306 -0.2041753463
S 7.9347144073 1.4606076779 0.6460242582
H -1.9190248754 0.5685578026 -1.9409996320
H 0.6598605178 -0.2169188747 -3.3870217347
H -0.5450805028 1.0267721726 -3.8567408848
H -0.4274660189 -2.0615993595 -1.6615732286
H -2.3724194391 -2.8621292994 -0.5653187779
H -4.3027180262 -3.2266441438 -1.8945450139
H -5.6613470358 -3.9066675494 -3.6714609773
H -7.3789506959 -4.3550514559 -3.4496941509
H -6.2355471531 -4.5142841568 -2.0844082439
H -8.0815025767 -0.8420457240 -2.4395379892
H -4.2428064895 2.7555115345 -0.7934450341
H -5.7149681114 3.4743098976 -0.0774470895
H -4.8231938824 2.2052541213 0.8110288236
H -3.5259999932 0.6422115239 -0.2272101991
H -3.1478190098 -2.2968963481 1.7620895283
H -2.5776067384 0.5964878701 5.4368906075
H -1.2158669970 -0.5689772908 5.7397429852
H 0.1643880651 1.4487754038 1.6755402663
H 0.0292304667 1.4428071025 -0.7336932928
H 1.5501497517 -0.6524826030 1.0519228619
H 2.8785484319 0.6931183437 2.3218872448
H 2.8662981339 3.1528388521 2.0500109583
H 4.1199946791 3.0339681987 0.7797442973
H 6.3627445268 1.7509193720 3.4661529521
H 5.0790429895 0.7955708459 0.1886700938
H 3.8976816944 -1.5568737492 1.7387491624
H 5.2271302299 -2.6790778250 0.1883063802
H 3.6176319961 -0.7891946696 -1.2109012568
H 2.2615286647 -2.6192396473 -1.1541526528
H 6.1516992838 4.4978355051 1.4719656603
H 8.0501496740 4.9501817421 -0.2994031101
H 9.3562107621 2.7396852185 -0.9005133711
