54
CONF16
C 1.7070233457 0.0463691612 3.1094028925
C 1.4841913106 -1.3470618483 2.5316181526
C 0.6379464273 -1.4300694091 1.2831686504
O 0.1420986012 -2.4616660921 0.8741100670
O 0.5287734989 -0.2340561914 0.6778546400
C -0.2867155574 -0.0655249412 -0.5337072415
C -1.7692195254 -0.3550091649 -0.1651658411
C -2.2302164738 0.2940110437 1.1157715270
C -2.7190480594 1.6054305593 1.1346330944
C -3.1157600400 2.2050667451 2.3274368596
C -3.0384830919 1.4996508843 3.5261536852
C -2.5780041989 0.1851911924 3.5186168560
C -2.1817118123 -0.4104083384 2.3239591527
C 0.2234723156 -0.9676564080 -1.6482353961
C -0.6279870009 -1.3951973213 -2.6711023133
C -0.1463447729 -2.1668360189 -3.7267665425
C 1.1962142064 -2.5266178171 -3.7790858298
C 2.0535294855 -2.1054756743 -2.7649051378
C 1.5726311359 -1.3321107030 -1.7139009066
C -0.0703574447 1.4366230348 -0.8789830429
C -0.8540748706 1.8888341997 -2.1116617324
C 1.4136468906 1.7993285339 -1.0613525090
N 1.6384449305 3.2486900914 -0.9411850830
C 2.9134120508 3.6100060260 -1.5640476085
C 1.6543784063 3.6583013781 0.4651687821
H 2.2603951642 0.6825322599 2.4143645096
H 2.2796742447 -0.0254827168 4.0382933028
H 1.0127705770 -2.0126592587 3.2620963459
H 2.4430329783 -1.8169505440 2.2733303816
H -2.3954609465 -0.0086849796 -0.9896507517
H -1.8924132298 -1.4373785652 -0.0933929072
H -2.8023511671 2.1623904152 0.2058017132
H -3.4918288483 3.2236787395 2.3183282613
H -3.3476850035 1.9663072646 4.4562667828
H -2.5306011001 -0.3810190972 4.4440651363
H -1.8396407888 -1.4411556962 2.3263235500
H -1.6787848342 -1.1295778673 -2.6573779154
H -0.8287227399 -2.4878959532 -4.5078128603
H 1.5711653165 -3.1312507523 -4.5988560913
H 3.1031567624 -2.3822957025 -2.7884024899
H 2.2567212105 -1.0232107960 -0.9308270046
H -0.4456865970 1.9808453450 -0.0049199308
H -0.6450313430 2.9467838712 -2.2891396951
H 1.7264814908 1.4893283112 -2.0660358557
H 2.0475319929 1.2547934911 -0.3404892821
H 3.0769264561 4.6888496690 -1.4700289155
H 2.8943825166 3.3551019503 -2.6287590769
H 3.7750336678 3.0920535410 -1.0989437074
H 2.4726475648 3.1712680435 1.0315498155
H 1.7893514385 4.7429343895 0.5312278392
H 0.7086110718 3.4071831621 0.9549680607
H 0.7532642652 0.5346980074 3.3310203760
H -0.5420565231 1.3285767607 -2.9993191436
H -1.9353961587 1.7778160684 -1.9993905722
