52
CONF1
C -1.0835860976 4.0445754513 -3.0752248930
O -2.1020787738 3.2495319882 -2.4517318109
C -1.6927806363 2.2336169995 -1.6430561871
C -0.3563593422 1.9111335647 -1.3933405239
C -0.0444931169 0.8455750378 -0.5481956992
C -1.0618222332 0.0899780637 0.0359757232
C -2.3984989981 0.4124762077 -0.2103208179
C -2.7214765333 1.4912867550 -1.0447424670
O -4.0363402935 1.8314291217 -1.2590035841
C -4.6088803147 1.1641667045 -2.4039184411
O -3.4596213674 -0.2622132812 0.3125546259
C -3.1711260504 -1.3692290506 1.1781449849
C 1.4209289209 0.5360879546 -0.2640771989
C 1.9768879091 1.2861570987 0.9492725403
C 1.4091898602 0.7515705810 2.2530047065
C 1.7521938389 1.8737678340 3.2208787566
O 1.6557499553 3.0880113369 2.3983551749
C 1.7913781613 2.7790396260 1.0817691963
O 1.7977420750 3.6372081280 0.2304265054
C 1.9788855541 -0.6261607591 2.5164832953
C 1.8815851353 -1.4869403815 1.2563047984
C 2.0612581196 -2.8779570472 1.4242071201
C 2.0035243330 -3.6708067067 0.3068908548
C 1.7757386994 -3.1390256075 -0.9586253464
C 1.5969177809 -1.7925853303 -1.1509270188
C 1.6564388970 -0.9496412756 -0.0209734370
O 1.7202715244 -4.1492985060 -1.8851824115
C 2.1940276482 -5.3218737085 -1.1876966796
O 2.1005440581 -5.0385802024 0.2243114671
O 1.3701011527 -1.2534182495 3.6511777119
H -0.4568554540 4.5396155821 -2.3243923376
H -0.4575397510 3.4345378786 -3.7364174712
H -1.6152869966 4.7941896559 -3.6618272249
H 0.4461040312 2.4814251172 -1.8421754830
H -0.8064175266 -0.7578906542 0.6583099761
H -5.6413357769 1.5104351043 -2.4805943075
H -4.5920474496 0.0772771868 -2.2622511223
H -4.0606646581 1.4281798680 -3.3156401543
H -4.1408536751 -1.7585049967 1.4892606844
H -2.6045694429 -1.0425962822 2.0581638609
H -2.6132965739 -2.1497084296 0.6476462370
H 1.9950858203 0.8352215049 -1.1484768193
H 3.0713120956 1.1397439319 0.9582720622
H 0.3173758050 0.6768655683 2.1612404073
H 2.7806969271 1.8006117621 3.5927892306
H 1.0562911846 1.9944488486 4.0511376752
H 3.0383578663 -0.5261986233 2.7932058976
H 2.2293137513 -3.2970216450 2.4095628344
H 1.4057421082 -1.3804093608 -2.1365923755
H 1.5541688915 -6.1718204318 -1.4314056445
H 3.2455734245 -5.4976645265 -1.4520388967
H 0.4425459244 -1.4186202207 3.4294816024
