48
CONF46
C -3.9230601830 0.4529770647 -2.1068105052
C -4.3109307152 0.3043752404 -0.6289480541
C -4.7081732669 -1.1490946964 -0.3372873103
C -5.5240611329 1.2065581795 -0.3461891663
C -3.1607562578 0.8204783045 0.2841439885
C -1.7557251467 0.2795492359 -0.0388923954
N -1.6058120938 -1.1532715630 0.1938435181
C -1.1821647212 -2.1149226549 -0.6552426114
N -1.2106441086 -3.2972284160 -0.0579357186
C -1.6665127901 -2.9956787944 1.1907076565
N -1.9167447386 -1.7100001183 1.3937218811
O -0.8548570138 0.9980919299 0.7930512226
C 0.5017772165 0.8477008288 0.5920127367
C 1.0889667312 0.4950541016 -0.6219887733
C 2.4759956515 0.4245221106 -0.7125818143
C 3.2995103382 0.7009021485 0.3843802220
C 2.6819666977 1.0555915357 1.5931222616
C 1.3016936350 1.1243309130 1.7008181700
C 4.7707005730 0.6233657829 0.2734252782
C 5.4264354932 1.0327087422 -0.8967670417
C 6.8116569696 0.9596258378 -1.0000115170
C 7.5714795026 0.4781476361 0.0642532468
C 6.9322994799 0.0692014371 1.2329641063
C 5.5469785992 0.1401113423 1.3367769537
O -3.4655943350 0.6996915636 1.6678943360
H -3.1657089541 -0.2774553132 -2.4104629072
H -3.5422939791 1.4592274771 -2.3190832259
H -4.8045201969 0.2884141300 -2.7348976781
H -3.9324422051 -1.8632720377 -0.6274177406
H -4.9397629314 -1.2938582457 0.7225607086
H -5.6082113990 -1.3950255202 -0.9105672439
H -5.2967180762 2.2522979622 -0.5820790598
H -6.3718640535 0.8928376996 -0.9634709871
H -5.8210803967 1.1452074467 0.7042549217
H -3.0714954089 1.8983124316 0.0909977720
H -1.5426608839 0.4430218689 -1.0990551420
H -0.8810874433 -1.9084791763 -1.6741713452
H -1.8143408483 -3.7342298432 1.9683189375
H 0.4960941791 0.2796504074 -1.5026723880
H 2.9208438885 0.1285173200 -1.6574649200
H 3.2907761950 1.2975344371 2.4586018374
H 0.8268795779 1.4043653266 2.6354718968
H 4.8475862145 1.4335242173 -1.7233358990
H 7.3003921307 1.2897093039 -1.9116937217
H 8.6524326331 0.4222328407 -0.0165117987
H 7.5140924759 -0.3157718695 2.0649785687
H 5.0586746155 -0.2039558149 2.2434977378
H -3.2400075278 -0.2034954467 1.9457405774
