38
CONF19
C 0.4154421124 5.0305946508 2.6601193636
C 1.3645734128 3.9088686500 2.2996308395
C 2.7942383019 4.3651346910 2.0870610660
O 0.8530483964 3.3520141389 1.0273369450
C 1.1472078527 2.0823871049 0.7418163610
O 1.7883461687 1.3324292103 1.4452201808
C 0.4803952143 1.6676351920 -0.5976023415
C -0.9359004830 1.2063010523 -0.2387120242
C -2.0348594867 1.6982843262 -0.9391969837
C -3.3256759414 1.2761401129 -0.6269713113
C -3.4990633687 0.3565588492 0.3968996209
C -2.4216761984 -0.1531975986 1.1116377593
C -1.1409797447 0.2779373827 0.7860261877
Br -5.2712431658 -0.2296958898 0.8384853096
C 1.3099864400 0.5859855845 -1.2779055110
C 2.6620944735 0.8445208991 -1.5201369133
C 3.4590374203 -0.0782701637 -2.1840999398
C 2.8817546907 -1.2699920640 -2.6099297157
C 1.5423239685 -1.5521719370 -2.3923126723
C 0.7597931906 -0.6123049652 -1.7219273266
Br 3.9719317574 -2.5554186760 -3.5260813074
O 0.4674442084 2.7664114153 -1.5059847280
H 0.4330576646 5.8114539418 1.8936259770
H -0.6066345640 4.6582125059 2.7684946315
H 0.7274901392 5.4715297666 3.6110887056
H 1.3189380445 3.1034577600 3.0386262698
H 3.1812919546 4.7836732701 3.0208906515
H 2.8339301824 5.1408855482 1.3161038152
H 3.4350147837 3.5307810753 1.7912107005
H -1.8908381309 2.4108612863 -1.7430410623
H -4.1757801881 1.6615654732 -1.1779004679
H -2.5727519443 -0.8740794511 1.9066369140
H -0.2959079120 -0.1253000684 1.3349340026
H 3.1038648360 1.7796655739 -1.1892376429
H 4.5077861758 0.1269030619 -2.3643177994
H 1.1060555257 -2.4826518243 -2.7362898328
H 0.1323403497 3.5413272123 -1.0305688070
H -0.2889617083 -0.8309934069 -1.5548879805
