49
CONF68
C -5.4035514921 -0.3561094393 -2.4923513406
C -4.1494056536 -0.9850283117 -1.8786436561
C -3.1826543351 -1.4331257950 -2.9782572296
C -3.4638753103 0.0038318870 -0.9338006400
C -4.2553142507 0.4472639691 0.3324324339
C -4.3248589329 -0.8854740680 1.1361997231
C -2.9526181180 -1.5526986870 0.8355290218
C -2.2526146994 -0.5266423828 -0.1076616378
C -1.9655978492 0.6909628535 0.7327702376
C -3.2062759066 1.2940718277 1.0060767689
C -3.3025785961 2.4568437404 1.7518741161
C -2.1193893168 3.0448733702 2.2139493693
C -0.8851636169 2.4632657093 1.9472326258
C -0.7960344124 1.2715398450 1.2092057898
N 0.4891921854 0.7572856605 0.9060537560
C 0.8834934890 -0.5396449724 1.1171786149
O 0.1521598937 -1.3966701528 1.6072519588
C 2.2661942792 -0.8326614146 0.6931258644
C 3.0294113924 -0.1739698340 -0.2627454957
N 4.2169919302 -0.8101837098 -0.3302132005
N 4.2941970240 -1.8432657671 0.5235721249
C 3.1127717710 -1.8755177315 1.1439609902
C 2.9179562115 -2.9309034078 2.1737183557
F 2.4416631400 -2.3939585499 3.3503768448
F 1.9861215296 -3.8660213451 1.7664958578
C 5.3328561345 -0.4917474592 -1.2150518435
H -5.1448728165 0.5540004573 -3.0473880947
H -6.1373200335 -0.0881530134 -1.7260058449
H -5.8833123613 -1.0508169695 -3.1896699505
H -4.4582354612 -1.8742839096 -1.3156628987
H -3.6800485098 -2.1149318240 -3.6759054279
H -2.8244564067 -0.5678396630 -3.5493319672
H -2.3116413170 -1.9508430121 -2.5650259103
H -3.1643672428 0.8865975694 -1.5165281938
H -5.2173215362 0.9389052320 0.1792818315
H -5.1587903119 -1.4998680004 0.7833165549
H -4.4777917910 -0.6962647975 2.2020281638
H -3.0761708865 -2.5115862995 0.3230997372
H -4.2652400756 2.9178274358 1.9523614138
H -2.1585031651 3.9688427944 2.7825982032
H 2.8041428829 0.6680419857 -0.9024041015
H 3.8518876431 -3.4602689150 2.3886621670
H 5.0329910294 -0.6297683178 -2.2570758719
H 6.1537947502 -1.1669214720 -0.9762506389
H 5.6467326539 0.5427842008 -1.0567975804
H -2.3549076934 -1.7246955598 1.7306322090
H -1.4055130897 -0.9265429647 -0.6644936824
H 1.2176160615 1.4420566180 0.7618283847
H 0.0271034353 2.9312401219 2.3063825348
