54
CONF74
C 2.7930876226 -0.5086750013 -0.2398020500
C 2.3635349539 0.8185838500 0.3838230437
C 1.5488946679 1.6426385170 -0.5809686114
C 1.1180500749 1.1076272689 -1.8027992072
C 0.4086380324 1.8869767912 -2.7186882237
C 0.0887726031 3.2040997847 -2.4202182710
C 0.4894434553 3.7146981270 -1.1949588432
C 1.2101952356 2.9656850568 -0.2850788035
F 0.1674355449 4.9950168909 -0.8822757624
O 1.3510796416 -0.1968736775 -2.1573204593
C 1.6322428855 -1.0713478501 -1.0388287857
C 1.8811446848 -2.4747300176 -1.5865662145
C 0.7769142854 -2.9785965735 -2.5238424891
N -0.4913249701 -3.1264042966 -1.7854039215
C -1.4878896827 -2.0904898325 -2.0893763440
C -2.6080960975 -2.0293114893 -1.0284386766
C -2.3560744955 -1.0916365857 0.1525629308
C -2.1571710159 0.3682956619 -0.2214350177
C -2.0074172636 1.2009270039 1.0496496715
C -1.0196825909 0.5546014409 1.9855742517
C -0.6809047909 -0.7969409052 1.8424132131
O -1.2087446025 -1.6013735635 0.8651014572
C 0.2683027875 -1.3901771111 2.6770178362
C 0.8821278285 -0.6514793201 3.6785050088
C 0.5286309648 0.6814079018 3.8232673210
C -0.3983697846 1.2892032046 2.9983682862
F 1.1214593128 1.4143831082 4.7965566998
O -2.9462613776 -3.3352888657 -0.5650971783
O 1.9970881102 -3.3610636207 -0.4753490428
H 3.0879934396 -1.2262890970 0.5299046170
H 3.6433663406 -0.3670594172 -0.9190830173
H 1.7647298181 0.6269272802 1.2827232640
H 3.2351567060 1.3974050907 0.7097755502
H 0.1048606601 1.4392117633 -3.6591963156
H -0.4641222030 3.8261508050 -3.1146171588
H 1.5205213401 3.4131362815 0.6544306359
H 0.7352739004 -1.1148040476 -0.4033098022
H 2.8414334020 -2.4968707581 -2.1185086682
H 0.6807461454 -2.3150399638 -3.3941978495
H 1.0965343650 -3.9615550870 -2.8883896492
H -0.9028337965 -4.0260818903 -1.9967477193
H -1.9539264111 -2.2643286705 -3.0742703677
H -0.9788533535 -1.1241571509 -2.1546577110
H -3.5143080821 -1.6482549521 -1.5159766057
H -3.2263839596 -1.1811455321 0.8237949824
H -3.0094883023 0.7151060780 -0.8156212916
H -2.9797956666 1.3002023470 1.5505360802
H 0.5187215585 -2.4346624927 2.5257254916
H 1.6212053532 -1.0935000244 4.3365571690
H -0.6309798296 2.3407677354 3.1350416150
H -2.1884903741 -3.6323477971 -0.0429581877
H -1.2577369375 0.4810964247 -0.8354278145
H -1.6693282529 2.2131830135 0.8036774563
H 1.0773085882 -3.5092369676 -0.1976322369
