38
CONF34
C 1.9367640649 -3.1681028971 0.6370808488
C 0.8830825645 -2.1602256811 0.1910004228
C 1.0913240739 -0.7386498602 0.6626646593
C 0.1840722360 0.2711097422 0.2895631082
C 0.3161086542 1.5992065464 0.7282766630
C 1.4060367567 1.9063946780 1.5481481676
C 2.3222178435 0.9307093837 1.9121465583
C 2.1670911926 -0.3804018965 1.4739163206
C -0.6969256833 2.6583873538 0.3564521277
C -0.1234012640 4.0652780365 0.1819423624
N -0.9332483835 -0.0750977554 -0.5491818319
C -2.2431702449 -0.2465691150 0.0940248256
O -2.4512630979 -1.5327800626 0.6341624403
C -2.7597068162 -2.5236758133 -0.3523927493
C -0.8422373287 -0.1624841279 -1.9151775151
O -1.7890366617 -0.4566551544 -2.6349660170
C 0.5168469574 0.1410599944 -2.5340056356
Cl 0.6061779297 1.9207613972 -2.9156581137
H 2.9339554249 -2.9028924643 0.2712558863
H 1.9829230923 -3.2456197675 1.7278657232
H 1.6896231845 -4.1580318362 0.2439220499
H -0.1050038399 -2.4847654794 0.5361337032
H 0.8221845748 -2.1733970883 -0.9059013430
H 1.5409947441 2.9228601811 1.9004644914
H 3.1644702201 1.1906733993 2.5458721768
H 2.8893035341 -1.1302015991 1.7746819402
H -1.2014365975 2.3629668192 -0.5676830324
H -1.4759846551 2.6839120612 1.1319705120
H 0.2428956025 4.4839539645 1.1232583005
H 0.7021219048 4.0611158010 -0.5362217607
H -0.8995026892 4.7376414068 -0.1947418244
H -3.0118161607 0.0006917307 -0.6491506916
H -2.2882977780 0.4396348468 0.9430630841
H -2.9624146563 -3.4485015415 0.1917953955
H -3.6444686930 -2.2334981329 -0.9336360962
H -1.9219549328 -2.6817222627 -1.0425875090
H 1.3642550134 -0.0818823903 -1.8865242933
H 0.5874207079 -0.3912027134 -3.4818331588
