39
CONF422
C 7.6162558748 2.7927271936 1.6260470670
C 6.6457109448 2.2344731742 0.5881429836
C 6.0752548540 0.8729328008 0.9845743968
C 5.1126465981 0.3114657698 -0.0594091497
C 4.3801111588 -0.9605188583 0.3841267825
C 5.3088120815 -2.1546153894 0.6701180047
C 6.1869799919 -2.5955960183 -0.5015197252
C 3.3175534567 -1.3516647493 -0.6371719071
O 2.2696715285 -0.3342385576 -0.7034663257
C 1.2906131267 -0.4442092585 0.2059587574
O 1.1559715089 -1.3409650901 1.0027550334
C 0.3083971712 0.6845254669 0.0658817184
C -0.8929522428 0.4224377674 -0.5775414661
C -1.8460196559 1.4211267831 -0.7142014530
C -1.6155935890 2.7012138572 -0.1988794666
C -0.4066639179 2.9633663111 0.4691903686
C 0.5497339700 1.9489014670 0.5966480685
Br 2.1777312429 2.2353744346 1.5326982976
Br -0.0695878245 4.6774374813 1.1939904774
Br -2.9215635012 4.0532933365 -0.3932514419
Br -3.4528344980 0.9739441274 -1.6197631189
H 8.0087780170 3.7686058600 1.3250638106
H 7.1238833941 2.9147364380 2.5969028963
H 8.4677962304 2.1187719096 1.7692672175
H 5.8178154864 2.9397646060 0.4366879509
H 7.1520780911 2.1443574677 -0.3819907420
H 6.9045828827 0.1729101455 1.1526032156
H 5.5520987541 0.9655103261 1.9479979236
H 5.6546964879 0.1194687218 -0.9955761674
H 4.3626716883 1.0756339423 -0.2953383484
H 3.8472799756 -0.7416084187 1.3202924482
H 4.6908999844 -2.9983117928 1.0026236051
H 5.9480510909 -1.8991106904 1.5224565943
H 6.7973649303 -3.4576339230 -0.2169701772
H 5.5934891210 -2.8917749366 -1.3728391508
H 6.8701245989 -1.8009601277 -0.8164672712
H 2.8569569677 -2.3120887814 -0.3878485539
H 3.7183937483 -1.3807930341 -1.6535091168
H -1.0865415915 -0.5670957313 -0.9737650452
