76
CONF1963
C 2.7486817420 -2.2771749810 -1.8079611848
C 3.0867196317 -0.9184893288 -1.1835863432
C 4.3391712838 -1.0342204394 -0.2906352135
C 4.1399021386 -1.9065318359 0.9642651167
C 5.4100120013 -2.0223617488 1.7458615362
O 6.3858370816 -2.8192731787 1.2425513407
N 5.6016102154 -1.3749567828 2.8275969386
C 6.8798978964 -1.5052683274 3.5078700776
C 6.8794163205 -0.6395290087 4.7562298583
O 5.7508377438 0.0507456626 4.9596387731
O 7.8206925927 -0.5646471312 5.5196450032
C 1.9122213264 -0.2847659879 -0.4216331587
C 2.2897281539 1.0831590159 0.2173411353
C 0.9898151454 1.9255746905 0.2792984265
C -0.1017158910 0.9432477158 -0.1487445561
C -1.4449829513 1.5022711324 -0.6055529148
C -2.0555505859 2.4449415528 0.4341838394
O -2.0387248690 1.7752513120 1.7134513558
C -3.4613099784 2.8925410982 0.0319344239
C -4.4069000229 1.7514669834 -0.3697697565
C -4.8926582912 0.9524297050 0.8526847119
C -5.8529170721 -0.1568489653 0.4661915154
O -6.2326876114 -0.8378602539 1.6795156850
C -5.1975477717 -1.0962451177 -0.5367731169
C -4.7635922794 -0.3030224781 -1.7681755769
C -3.7796803134 0.8504031387 -1.4702353168
C -3.6455730642 1.6513281935 -2.7789974278
C -2.3958839706 0.3367406374 -0.9684956172
C -1.7256039242 -0.6414712798 -1.9471915482
C -0.3446164867 -1.1450058352 -1.5004764430
O -0.4673718390 -2.0728640716 -0.4040188988
C 0.5977494832 0.0371995472 -1.1899939939
C 0.9164351706 0.7778513573 -2.4978905130
H 2.2552546385 -2.9393668349 -1.0889120542
H 3.6598969583 -2.7749328327 -2.1591320184
H 2.0836650267 -2.1675378318 -2.6676071018
H 3.3721407201 -0.2336063780 -1.9951612566
H 5.1514756974 -1.4525750522 -0.8981806353
H 4.6650720124 -0.0390581956 0.0305892470
H 3.8029432836 -2.9113846533 0.6802907460
H 3.3849822582 -1.4677231132 1.6195431464
H 6.0802087697 -3.2562502139 0.4338050661
H 7.7297785822 -1.1854627468 2.8876365056
H 7.0947836755 -2.5368902406 3.8214998474
H 5.1608077908 -0.1939036829 4.2023039816
H 1.6213870595 -0.9756574929 0.3800536075
H 2.7296003826 0.9435874420 1.2099918371
H 3.0471845115 1.5857542774 -0.3950296086
H 1.0375076192 2.7708733902 -0.4176152163
H 0.8044868742 2.3377337464 1.2752588918
H -0.3012535891 0.3060182868 0.7262773202
H -1.2778861930 2.1190219180 -1.4977748241
H -1.4147199595 3.3391489146 0.5029075334
H -2.5243075584 2.3320440518 2.3346053035
H -3.3538612646 3.5894443262 -0.8082748997
H -3.9052347869 3.4712273603 0.8539420001
H -5.3002115859 2.2131575252 -0.8187920404
H -4.0471822359 0.5088186863 1.3870514154
H -5.3866360353 1.6395413359 1.5519535003
H -6.7517927850 0.2845858089 0.0016923948
H -6.8426466409 -1.5455699709 1.4353183503
H -4.3402022524 -1.5882534747 -0.0581541736
H -5.9037658714 -1.8842485566 -0.8291005302
H -5.6597285201 0.1432192684 -2.2232324904
H -4.3427993259 -0.9712389348 -2.5265704035
H -2.9116862925 2.4579739811 -2.7194614359
H -3.3570249391 0.9986075083 -3.6090495733
H -4.6128290211 2.0987635775 -3.0340845463
H -2.5804596300 -0.2107219773 -0.0333961793
H -2.3578330298 -1.5247453874 -2.0848322498
H -1.6224227506 -0.1727011818 -2.9314261298
H 0.0716855634 -1.7490642478 -2.3123059138
H -0.9172421620 -1.6252438607 0.3235486634
H 0.0299680111 1.2288100143 -2.9492689259
H 1.6454595732 1.5771770461 -2.3364825641
H 1.3420245960 0.0860132991 -3.2329364231
