43
CONF35
C 3.4191071201 -3.6662570273 2.1542464592
C 4.6602091563 -3.2521390254 1.3947100135
O 4.3026958250 -2.3903788168 0.2634068616
C 4.1287931264 -1.0904561598 0.5261028603
O 4.2581647706 -0.5677212951 1.6121006090
C 3.7954028591 -0.3351458447 -0.7614800941
C 5.0844428970 0.0509800500 -1.4725046371
O 3.1079257554 0.8784532248 -0.4590995556
C 1.8406802040 0.7944340822 0.0523623205
C 1.2412065009 2.0195384280 0.3632735105
C -0.0439088775 2.0543998927 0.8831455338
C -0.7217332909 0.8601547216 1.0893787766
C -0.1433351850 -0.3598941571 0.7901157472
C 1.1485570947 -0.3998986694 0.2667622877
O -1.9952817186 0.8854054502 1.6838683103
C -3.0699775349 1.0273690433 0.8692566158
C -4.3327375788 1.0521823015 1.5385909495
N -5.4515999430 1.1804163771 0.8770480345
C -5.3620871278 1.2910808320 -0.4844248563
C -6.5436344679 1.4309466610 -1.2394079835
C -6.4415296077 1.5415312001 -2.6054232258
C -5.2014255497 1.5201008817 -3.2704369120
C -4.0427807644 1.3835948276 -2.5398645727
C -4.0958061205 1.2660388582 -1.1361958599
N -2.9395848621 1.1298410098 -0.4228019573
Cl -7.9016052245 1.7152844373 -3.5679095885
H 2.7140527228 -4.1779624806 1.4930621768
H 2.9246705592 -2.8005815121 2.6027073064
H 3.7034890569 -4.3556156115 2.9552568269
H 5.1538383553 -4.1064052762 0.9283518932
H 5.3723228165 -2.7173008441 2.0277861233
H 3.1820153231 -0.9723689996 -1.4105073497
H 5.6985698677 0.6826060751 -0.8246620452
H 5.6470080935 -0.8480545695 -1.7345363656
H 4.8453221845 0.5974892729 -2.3878428596
H 1.7954149555 2.9367699784 0.1946120301
H -0.5181004719 2.9992355299 1.1273293636
H -0.6944151345 -1.2782886625 0.9631552565
H 1.5851859553 -1.3647270032 0.0375731917
H -4.3668565960 0.9617144010 2.6227438143
H -7.5008771130 1.4481603968 -0.7308211846
H -5.1654946465 1.6109468743 -4.3501150935
H -3.0763029771 1.3645210311 -3.0326969435
