52
CONF9
O 4.1837254249 -1.5904251182 -2.2101849057
C 2.8308382191 -1.4906012964 -1.7508917358
C 2.7100161325 -0.6811985288 -0.4621552394
C 3.7606727603 -0.8102363206 0.4725293951
C 3.6883528892 -0.0719130838 1.6262240275
C 2.6220388233 0.7821502615 1.8784322416
C 1.5807359465 0.9159489147 0.9953145747
C 1.6200555018 0.1647516342 -0.1993126788
C 0.4384445767 0.3349150456 -1.1627332766
C -0.8925036525 0.3469809346 -0.4340227463
C -1.2754487647 -0.7625582302 0.3208235629
C -2.4952735793 -0.7506917519 0.9989252514
O -2.9617839954 -1.7733623451 1.7665484731
C -2.1345982171 -2.9393753000 1.8785134689
C -3.3367098230 0.3705067768 0.9180058846
O -4.5581813834 0.3630453123 1.5493740818
C -4.5010652785 0.9050125901 2.8856139294
C -2.9365976783 1.4834216232 0.1672038957
O -3.8106977850 2.5268082707 0.1578611158
C -3.4406871130 3.6892887740 -0.5963459109
C -1.7124002181 1.4694895345 -0.5101480791
C 0.5152773715 -0.7567785683 -2.2232887049
C -0.3257912232 -0.6190421890 -3.4728253464
O 0.3420535489 -1.1889200512 -4.5123632982
C 1.6490289926 -1.6866629332 -4.0642976952
C 1.9178507900 -0.8919890372 -2.7961675461
O -1.4164539308 -0.1217998341 -3.6236125304
O 2.7915308091 1.4029668803 3.0879846049
C 4.0411288017 0.9094839595 3.6214408821
O 4.5784848484 -0.0340929653 2.6680641779
H 4.5230033845 -0.6907801852 -2.3204608733
H 2.5284691570 -2.5305789121 -1.5618497372
H 4.5991403513 -1.4669041052 0.2714870627
H 0.7424566718 1.5703988881 1.2095710516
H 0.5510812395 1.3031605335 -1.6699074494
H -0.6114844868 -1.6156835568 0.3948185231
H -2.6830860004 -3.6272789560 2.5224734175
H -1.9721323219 -3.4015013019 0.8978996240
H -1.1694950564 -2.6944458800 2.3370787766
H -4.1640011960 1.9477779603 2.8627196742
H -5.5156893151 0.8538114349 3.2852734119
H -3.8255995546 0.3101824985 3.5115732076
H -3.3202090560 3.4468505295 -1.6584577643
H -4.2636342422 4.3934870174 -0.4716020408
H -2.5150368433 4.1310530188 -0.2094783065
H -1.3941542346 2.3194319029 -1.1011459110
H 0.2275642511 -1.7230991825 -1.7757684591
H 2.3544474158 -1.5106032476 -4.8763792978
H 1.5556494940 -2.7607932451 -3.8661406441
H 2.2895907884 0.1087479465 -3.0630299564
H 4.7396145310 1.7453090677 3.7367149866
H 3.8514633136 0.3963358157 4.5701005128
