49
CONF1
C -0.7822714606 1.5844267467 4.8309168890
C -0.3795275174 2.3202500028 3.7189011112
C -0.1088947800 1.6852277174 2.5110788330
C -0.2163074912 0.2958840359 2.4317373276
C -0.6199807010 -0.4528606843 3.5394765113
C -0.9063325283 0.1999772178 4.7332997620
N 0.0877207462 -0.3410831863 1.2028728140
C 1.2921320422 -0.2232973929 0.5300940271
O 2.0821728679 0.6943429727 0.6587076323
C 1.5049812088 -1.5208558131 -0.2211293539
C 0.1846207908 -2.2405352011 -0.0841669786
O -0.2028955134 -3.2239186175 -0.6900140616
N -0.5472959141 -1.5658276580 0.8840804636
C -1.9694996408 -1.6270917954 0.9506187157
C -2.7456912489 -0.4895466206 0.7296323834
C -4.1307054311 -0.5910638478 0.8056320206
C -4.7371073958 -1.8146780422 1.0833719996
C -3.9497357125 -2.9435871139 1.2979518616
C -2.5623235392 -2.8531377072 1.2473316614
C 2.1445273451 -1.4461994836 -1.6164701698
C 1.2193476204 -1.4232655128 -2.8262506008
S 0.1352493127 0.0627119287 -2.9866557730
O -0.5040745579 0.2690966052 -1.6069696482
C 1.4369025034 1.3251759552 -3.1550264543
C 1.5750689898 2.2764644470 -2.1541537047
C 2.5370127978 3.2741601465 -2.3029669949
C 3.3346033491 3.3147075650 -3.4433369648
C 3.1706270614 2.3603504009 -4.4476604303
C 2.2113198302 1.3617388059 -4.3128822279
H -1.0050415082 2.0870191906 5.7663481304
H -0.2906514497 3.4000572504 3.7826066391
H 0.1779160141 2.2538350898 1.6350491957
H -0.7070171156 -1.5313694144 3.4687413554
H -1.2218183451 -0.3816305328 5.5936447590
H 2.2080743720 -2.0639482071 0.4329155857
H -2.2723774094 0.4563143141 0.4947542193
H -4.7380134831 0.2924989789 0.6369707007
H -5.8184797696 -1.8862918521 1.1378449042
H -4.4140030381 -3.8985279819 1.5223705157
H -1.9402683960 -3.7197938396 1.4383457587
H 2.8133390940 -0.5777554916 -1.6268472776
H 2.7791014217 -2.3282796484 -1.7459233828
H 1.8038071783 -1.4634107442 -3.7517567694
H 0.5213964068 -2.2653796730 -2.8229412398
H 0.9487905621 2.2231217579 -1.2707132413
H 2.6609025090 4.0193147870 -1.5234517391
H 4.0817364076 4.0939346695 -3.5550041249
H 3.7861016228 2.3965572373 -5.3408914697
H 2.0728609137 0.6261693286 -5.1004220892
