48
CONF1
C 6.2772723582 -2.5650277508 1.1147453745
O 5.1241884946 -2.1429215661 1.8366007658
C 4.2055626184 -1.3880169162 1.1711187672
C 3.1013613940 -0.9734250955 1.9246704310
C 2.1143603397 -0.2039176703 1.3418205491
C 2.1904158870 0.1761581008 -0.0092433076
C 3.3102747416 -0.2274436575 -0.7399083119
C 4.3095039320 -1.0086664699 -0.1684463696
C 1.1199721309 0.9854745313 -0.6046538169
Cl 1.7203781071 2.3031903276 -1.6359428562
C -0.2149731943 0.8192767452 -0.4392029534
C -1.2307981868 1.8049384097 -0.8651768155
C -1.1488920205 3.1523568474 -0.5096874670
C -2.1348665711 4.0636876957 -0.8746253224
C -3.2326366185 3.6280403497 -1.6196996015
O -4.2525185142 4.4304542203 -2.0378850426
C -4.1839779850 5.8117881223 -1.6990999431
C -3.3378100857 2.2792857886 -1.9752832609
C -2.3557450640 1.3851138054 -1.5917449861
C -0.7452698529 -0.4217420050 0.1740869791
C -0.2840903411 -1.6854478099 -0.2011768907
C -0.7949140220 -2.8472930020 0.3671142862
C -1.7950126912 -2.7560176698 1.3378674788
O -2.3649522358 -3.8232620796 1.9661201588
C -1.8943288573 -5.1209546229 1.6157618544
C -2.2839654148 -1.4999371893 1.7127242410
C -1.7710844409 -0.3554803575 1.1302390594
H 6.8778211754 -3.1384303234 1.8220699765
H 6.0046101128 -3.2052719559 0.2655523174
H 6.8586649804 -1.7062193288 0.7548434250
H 3.0458566735 -1.2580024589 2.9698151934
H 1.2636502825 0.1147630444 1.9342288479
H 3.4030418078 0.0693238573 -1.7791295713
H 5.1570674880 -1.3058997285 -0.7734576452
H -0.3030290612 3.4973241294 0.0755484276
H -2.0366955206 5.0979046459 -0.5685876694
H -5.0754077083 6.2689520581 -2.1306738237
H -4.1910753022 5.9569530192 -0.6108025602
H -3.2891647354 6.2833825350 -2.1259114976
H -4.1997995879 1.9569150251 -2.5493764263
H -2.4505593728 0.3373305542 -1.8599534565
H 0.4926354246 -1.7622558381 -0.9549102470
H -0.4123728425 -3.8065882828 0.0412568689
H -0.8237610383 -5.2292222220 1.8336665788
H -2.4622847345 -5.8198555435 2.2312318408
H -2.0764899601 -5.3386345333 0.5551960656
H -3.0681337695 -1.4478231926 2.4604088663
H -2.1620285155 0.6151432722 1.4199889890
