56
CONF1
O 4.8847227666 2.7473292762 2.4091345913
C 3.6569891427 3.4766713298 2.3978863417
C 2.8279169571 3.1172465923 1.1711476242
N 2.6498393331 1.6635728318 1.0715739259
C 1.6648575479 1.1662910734 2.0384005362
C 1.5243528578 -0.3447693043 1.9296853793
N 1.1139806656 -0.7141997119 0.5772239903
C 0.8387305506 -2.1422085647 0.4346134631
C -0.4777345317 -2.5512369390 1.1048355982
C -1.6055100160 -1.5680011728 0.7778260078
N -1.7239885129 -1.3509873133 -0.6681110174
C -2.0809036968 -2.4284795434 -1.4953456434
C -2.8628871224 -3.4884256228 -1.0186466472
C -3.1980789402 -4.5547142549 -1.8476244294
C -2.7902868645 -4.5741542829 -3.1768939430
C -2.0298229234 -3.5182990725 -3.6719890824
C -1.6576095394 -2.4723715727 -2.8336008137
S -0.5411994538 -1.2257735345 -3.4369440673
C -1.1201148135 0.1562622190 -2.4874230290
C -0.9842102260 1.4405377138 -3.0031611221
C -1.3111740767 2.5509524833 -2.2325133733
C -1.8337367323 2.3474821652 -0.9605561076
C -2.0175959619 1.0631889718 -0.4524144479
C -1.6255868976 -0.0576204848 -1.1910436110
C -2.1771936122 3.5092274103 -0.0805891758
F -1.2462919438 3.6906256043 0.9010783664
F -2.2537385429 4.6746662972 -0.7600264474
F -3.3645632118 3.3381446894 0.5553416826
C 2.1084639608 -0.2407047001 -0.3823792611
C 2.2477838449 1.2700201024 -0.2828805724
H 4.6536288069 1.8713242022 2.0597973052
H 3.9034485498 4.5434271773 2.3703429563
H 3.0901751521 3.2934240900 3.3241172404
H 1.8602320950 3.6544736683 1.1971778547
H 3.3696732511 3.4482045855 0.2767357090
H 0.6749904288 1.6359274846 1.8684796512
H 1.9885651645 1.4215972457 3.0530070371
H 2.4845686607 -0.8263989061 2.2071225387
H 0.7670518110 -0.6785285820 2.6484715899
H 0.7615834621 -2.3518324259 -0.6392645126
H 1.6628496043 -2.7693695073 0.8276884283
H -0.7299511523 -3.5664605021 0.7795528439
H -0.3787262630 -2.5899300863 2.1959604784
H -1.3485695727 -0.6081622761 1.2235042671
H -2.5549283259 -1.8916441349 1.2236674441
H -3.2112987730 -3.4843501622 0.0070796572
H -3.7941437781 -5.3684264483 -1.4473801979
H -3.0589868952 -5.3995939994 -3.8269479252
H -1.6984953527 -3.5146665623 -4.7057844995
H -0.5922942770 1.5717650963 -4.0066354327
H -1.1719975578 3.5502704206 -2.6257625857
H -2.4627071633 0.9405456518 0.5275246415
H 1.7754906381 -0.5035430898 -1.3937240905
H 3.0989539046 -0.7109982609 -0.2145610060
H 3.0117734598 1.6135347264 -0.9898437240
H 1.2837034272 1.7391384333 -0.5655723529
