39
CONF323
C 6.9480090322 1.8498714420 -2.5142357252
C 6.0732179776 2.1907676558 -1.3095084004
C 5.8088980431 0.9803835557 -0.4126766620
C 4.9267221044 1.3305328178 0.7860918386
C 4.6451185789 0.1811254480 1.7685630471
C 5.9243173617 -0.3401900967 2.4469907097
C 5.6666437527 -1.1790756663 3.6995697867
C 3.9171207977 -0.9844072407 1.1076633443
O 2.7160396620 -0.5317588777 0.4000280691
C 1.6229658394 -0.3427492914 1.1422643566
O 1.5276373449 -0.5530574572 2.3317551163
C 0.4797963497 0.1165174572 0.2867927188
C 0.0926892951 -0.7001247703 -0.7691000244
C -1.0208312282 -0.3795049021 -1.5301216626
C -1.7572908452 0.7781754469 -1.2621184889
C -1.3476522395 1.6241942022 -0.2167956608
C -0.2313096918 1.2865658646 0.5573557696
Br 0.3907574578 2.4436137311 1.9298899325
Br -2.3029764728 3.2206727089 0.1386981623
Br -3.2799292531 1.1964903881 -2.3034114752
Br -1.4886480869 -1.5706072620 -2.9342764364
H 6.4738142608 1.0815314775 -3.1350631402
H 7.1250149921 2.7282179933 -3.1429869542
H 7.9219360472 1.4641467142 -2.1927664068
H 6.5515471411 2.9807992828 -0.7154728036
H 5.1136940027 2.5999657008 -1.6527808436
H 5.3352565638 0.1935918284 -1.0150393926
H 6.7694613364 0.5747235937 -0.0687967458
H 3.9719013205 1.7303109173 0.4205344619
H 5.4013466438 2.1420989161 1.3534444397
H 3.9903751679 0.5772885696 2.5568999522
H 6.5374357055 0.5285931736 2.7166567298
H 6.5148078616 -0.9219223388 1.7275289589
H 5.0700544130 -0.6171053966 4.4264607875
H 5.1315884544 -2.1061973293 3.4722112900
H 6.6099383469 -1.4557306600 4.1805336222
H 3.6204635591 -1.7434995727 1.8342079666
H 4.5245086623 -1.4442925435 0.3253291659
H 0.6563181487 -1.5997887792 -0.9849666093
