26
CONF664
C -2.6688680297 -0.4629509785 0.8936566591
C -1.9370546719 -0.7710691015 -0.4124961967
C -0.5630651842 -0.1038940729 -0.6105799042
C 0.4990146413 -0.4495255392 0.4395495663
C 1.9332547884 -0.0582255278 0.0438453034
C 2.0917432049 1.4165601660 -0.2925520237
O 3.4158027281 1.7373772506 -0.7288744294
O 2.7912431751 -0.3322283838 1.1685462401
O 0.1468151394 0.2243373547 1.6626153504
O -0.0786412150 -0.4614633035 -1.9101589830
O -1.8166701944 -2.1894135921 -0.5875637637
O -2.1452908277 -1.2146799806 1.9923559020
H -2.6422722414 0.6171762903 1.0936494858
H -3.7140930825 -0.7683275926 0.7826174223
H -2.5598747500 -0.4080107306 -1.2406524548
H -0.7123294233 0.9828702362 -0.6152050349
H 0.4994897620 -1.5409925115 0.6055855992
H 2.2380033244 -0.6604571708 -0.8217217725
H 1.9106220734 2.0210358892 0.6014702427
H 1.3545801958 1.6957462151 -1.0559165185
H 2.9302433868 -1.2872013697 1.2134736908
H 0.9182863762 0.1341813322 2.2451499995
H -0.1862767765 -1.4221607719 -1.9815989399
H -1.6648793113 -2.5532702956 0.2992032563
H 3.5687864393 1.2792070383 -1.5647446037
H -1.2907302005 -0.7951538854 2.2099342233
