82
CONF256
C -5.3143629923 -1.0352991450 -2.0835187914
C -5.1584884980 0.3843264263 -1.6026400893
C -6.2339463154 1.1597441817 -1.4311574946
C -3.7128968352 0.8076049955 -1.4182288366
C -3.4230373199 2.3096046078 -1.1490970509
C -2.6492104188 2.3932775022 0.1859505018
C -2.9128375554 1.0534525656 0.8997123402
C -2.9927793150 0.0369429947 -0.2639996911
C -1.6297456838 -0.5542496601 -0.7167950062
C -0.7457978245 0.3687185741 -1.5575363059
C 0.4084665832 -0.4166798159 -2.1689727120
C 1.3607324298 -1.0429859490 -1.1333044916
C 2.6145528949 -0.1162489412 -0.8095586443
C 2.2663129142 1.3645145031 -0.5608382678
C 3.4807045013 2.2269718204 -0.2094413068
C 4.2146594453 1.7140754350 1.0206156237
C 4.6185219678 0.2240657939 0.8875285923
C 3.4199809148 -0.6763696015 0.4100924133
C 2.4625785281 -1.0356470581 1.5516336573
C 1.4870382724 -2.1338341340 1.1467347836
C 0.5384474706 -1.8104600241 -0.0227783727
C -0.8259693557 -1.1331390132 0.4796857617
C -0.5916681610 0.0153396464 1.4828896558
C -1.8739876345 0.6956970197 1.9766622476
C -1.6962691223 -2.1971495804 1.1842294041
C 0.1734464433 -3.1801837628 -0.6586869362
C 5.8185778864 0.1460391302 -0.0820803798
C 5.1793895546 -0.2718947673 2.2345388968
O 3.3390033173 1.9755944218 2.1391017410
C 3.4631104916 -0.2099412577 -2.1065919927
C -4.2764816294 1.1973306850 1.5901458256
O -4.7431149185 -0.0818558757 2.0526731434
H -4.8544409810 -1.7470731991 -1.3883175389
H -4.8023237802 -1.1669917887 -3.0452460609
H -6.3658353103 -1.3051927280 -2.2078028140
H -6.1725914358 2.1933430857 -1.1073575573
H -7.2300993551 0.7662907695 -1.6142681585
H -3.2370383130 0.5093427124 -2.3610287711
H -2.8405389669 2.7381813362 -1.9705900198
H -4.3467384425 2.8889540674 -1.0924459072
H -1.5767692517 2.5225487266 0.0160406067
H -2.9752807787 3.2406933682 0.8019262547
H -3.6062944901 -0.8076945515 0.0538418470
H -1.8997192627 -1.3934366014 -1.3779001147
H -1.3234869144 0.8176559106 -2.3719276301
H -0.3614441915 1.1982864296 -0.9615585362
H 0.9592270792 0.2283050252 -2.8601167001
H -0.0193736226 -1.2184692042 -2.7861651040
H 1.8640463574 -1.8696433608 -1.6509519257
H 1.5499409064 1.4526067620 0.2586382242
H 1.7808446954 1.7814111111 -1.4505058515
H 4.1815653421 2.2823877302 -1.0474422836
H 3.1573329581 3.2560067744 -0.0131588031
H 5.1410964029 2.2967114561 1.1598225350
H 3.8733621180 -1.6252840783 0.0791702433
H 3.0309662487 -1.4192767318 2.4025063222
H 1.9511769073 -0.1387012106 1.9021409901
H 0.9083078880 -2.4607399142 2.0188551950
H 2.0931489958 -3.0034641309 0.8521314646
H -0.0635994802 -0.3711615104 2.3604200568
H 0.0608428103 0.7670583089 1.0360595015
H -2.3564200634 0.0526975206 2.7195269883
H -1.6028205057 1.6166041160 2.5110704470
H -2.1312893195 -2.9000679842 0.4683199523
H -2.5258704982 -1.7320834568 1.7176772171
H -1.1214350105 -2.7691159233 1.9191684592
H -0.1797872788 -3.8840131007 0.0989660177
H 1.0640152523 -3.6213221992 -1.1165626639
H -0.5982340008 -3.1029109676 -1.4303081302
H 6.6867743828 0.6393701284 0.3684763433
H 5.6379732057 0.6191353349 -1.0447238248
H 6.0846315286 -0.9003135529 -0.2659061056
H 5.4752407607 -1.3245805840 2.1561968557
H 4.4741800460 -0.1934487873 3.0646171347
H 6.0726394729 0.3073705261 2.4961805680
H 3.8118539470 1.7476644087 2.9479498092
H 2.8212252687 -0.2329506866 -2.9907376798
H 4.0633871291 -1.1259261067 -2.1117533923
H 4.1366813771 0.6355193135 -2.2407782582
H -4.1539536373 1.8863575102 2.4413269631
H -5.0091667584 1.6319489416 0.8995952400
H -5.5908412608 0.0600495850 2.4899611862
