44
CONF58
C -4.1547597055 2.3934325491 3.2962872902
C -3.6135626734 1.0755707867 2.8033582652
C -4.5364280072 -0.1228573320 2.9702317406
O -4.1863480173 -0.9855353038 1.8673934077
C -3.3922915068 -0.2267100782 0.9481391894
O -3.4844192265 1.1170618229 1.3601547499
C -4.0364749315 -0.3545554063 -0.4479852359
N -3.1753529388 0.1555641209 -1.4982559276
C -2.3098770160 -0.5359209954 -2.2688952895
N -1.5883753740 0.2945960452 -3.0104098127
C -2.0603338374 1.5165369301 -2.6319115104
N -3.0186793162 1.4851973704 -1.7145869316
C -1.9351724564 -0.7016681744 0.9412668640
C -1.5384134154 -2.0356315759 0.8058447580
C -0.2024102241 -2.4058238984 0.7134786479
C 0.7744642578 -1.4181347077 0.7509195614
C 0.4261106660 -0.0776962511 0.8857567202
C -0.9168248791 0.2567130526 0.9702853431
O 2.0826025670 -1.8476178355 0.7090076651
C 3.0165107478 -1.0748328367 0.0385748215
C 4.2729364816 -0.9559344663 0.6211058562
C 5.2759678306 -0.2592214345 -0.0447478199
C 4.9946737773 0.3121037180 -1.2797141145
C 3.7402178180 0.1952951153 -1.8682193139
C 2.7426291409 -0.5096116350 -1.2045452158
Cl 6.2579984988 1.2024820406 -2.1222565938
Cl -2.7090955333 -3.3474940028 0.6860987217
H -4.3014790181 2.3464488319 4.3794244857
H -3.4529304748 3.2029800376 3.0799212353
H -5.1146890746 2.6131579024 2.8197456342
H -2.6280683540 0.8614003866 3.2432391141
H -4.3752052758 -0.6640764021 3.9065072732
H -5.5894539923 0.1750960204 2.8823841028
H -4.2268960692 -1.4094998560 -0.6536558606
H -4.9811861205 0.1944314236 -0.4469840516
H -2.2531356365 -1.6170284387 -2.2593009790
H -1.6991756263 2.4498916983 -3.0452642360
H 0.0837983838 -3.4449113999 0.6016750989
H 1.1883954459 0.6924126914 0.9189482854
H -1.1981372193 1.2991915953 1.0646282835
H 4.4625778267 -1.4090805032 1.5880538779
H 6.2599099020 -0.1593897291 0.3988191099
H 3.5417753728 0.6387325221 -2.8372765170
H 1.7619530397 -0.6178253449 -1.6558556447
