25
CONF14
C 1.5465527687 -0.6243724052 0.6316632782
C 1.0773847599 -2.0250601935 1.0171378737
O -0.0761416469 -1.9542571040 1.8455342269
N 0.4666650689 0.1014129216 -0.0372202183
C 0.4109976640 -0.1021606292 -1.4801793683
C -0.9971429753 0.1263729931 -2.0349712564
O -1.9773556048 -0.6338793813 -1.3495417540
C 0.2784952006 1.4715274357 0.4188761024
C -0.5732729714 1.5090253126 1.6776339899
O -1.8566366909 0.9564626057 1.3403406492
H 1.8104543490 -0.0926492993 1.5535765123
H 2.4605868621 -0.6776032478 0.0115764350
H 1.8570268638 -2.5375326855 1.5914705264
H 0.8755666745 -2.6244169049 0.1143619273
H -0.6931040921 -1.3771096929 1.3683092651
H 1.1306925536 0.5369674029 -2.0324759325
H 0.6850183857 -1.1453098522 -1.6747900906
H -1.0161062057 -0.1926323576 -3.0830705806
H -1.2526761823 1.1986646506 -2.0229500152
H -1.9851226263 -0.3060080186 -0.4374115977
H -0.2434111605 2.0423159491 -0.3568683989
H 1.2322886622 1.9963199143 0.6128927620
H -0.1013995569 0.9173862377 2.4754546439
H -0.6765828530 2.5491100123 2.0215277072
H -2.3827774268 0.8874259396 2.1436680047
