42
CONF21
C -3.2715331602 1.6328971231 -3.5634705109
C -3.0997635751 0.2897226239 -3.2302096158
C -2.4327368657 -0.0577879507 -2.0607307993
C -1.9273302983 0.9287347131 -1.2073186898
C -2.1049678041 2.2700095948 -1.5450672605
C -2.7740093534 2.6196183897 -2.7174842169
C -1.1772928107 0.4864660068 0.0329626899
C -1.0721132274 1.5252706793 1.1334328339
C -0.0802919146 2.5091461707 1.1035444151
C 0.0060043647 3.4689874092 2.1070026439
C -0.9156653785 3.4320038946 3.1454029416
C -1.9118956182 2.4647210392 3.2052425482
C -1.9789996272 1.5114477292 2.1948432652
Cl -0.8161451491 4.6389663192 4.4226581242
C 0.2304566261 -0.0066687976 -0.2978925331
O 0.8039135182 0.2130101763 -1.3435166675
C 0.8866375108 -0.8459410378 0.7982495829
C 2.4114592212 -0.7119812273 0.7679989710
O 3.0317365142 0.2916676708 1.0567394797
C 2.9687804974 -2.0053082629 0.3273789748
C 4.2967231655 -2.3460162750 0.0938249144
C 4.5683844832 -3.6500824115 -0.3083037948
C 3.5385936940 -4.5887631756 -0.4692260939
C 2.2106528403 -4.2476981408 -0.2320578172
C 1.9412705848 -2.9424362040 0.1661649260
C 0.6352532222 -2.3356887421 0.4878569435
O -0.4477464435 -2.8840535648 0.5006718214
H -3.7943669989 1.9066864787 -4.4745317222
H -3.4886986253 -0.4875537838 -3.8808374441
H -2.3002305501 -1.1058274019 -1.8028563695
H -1.7286055265 3.0499139924 -0.8913095424
H -2.9072610042 3.6680868657 -2.9660124707
H -1.6941361019 -0.3864859022 0.4575086337
H 0.6368145295 2.5397080938 0.2880615988
H 0.7782165716 4.2290956379 2.0792407149
H -2.6201954744 2.4506298721 4.0258077498
H -2.7504347189 0.7482720081 2.2348155666
H 0.4688057255 -0.5884442606 1.7774250939
H 5.0901821142 -1.6172428020 0.2213425924
H 5.5930803078 -3.9510514967 -0.5002897343
H 3.7864806204 -5.5974198328 -0.7831787544
H 1.4109736225 -4.9705592138 -0.3538830629
