44
CONF2
C 1.1914352665 -0.1785657248 2.7812728203
C 1.5977905390 0.1903893155 1.3583072829
C 2.9512857491 -0.4342146900 0.9548741684
S 2.5025391389 -2.0749131897 0.2122214600
C 0.8402053260 -1.5191284385 -0.1873983038
O 0.0774694618 -2.1718634373 -0.8757046608
N 0.5988640928 -0.2862096490 0.3875846674
C -0.6050824835 0.4898708534 0.2489440092
O -0.7148848038 1.5279170957 0.8861879350
N -1.5117504177 0.0053517933 -0.6219723760
C -2.8244323428 0.6408566144 -0.7696647196
C -3.7540683717 0.2777365931 0.3990678479
C -4.1298706069 -1.2048339878 0.3846808801
C -4.7687231611 -1.5969346435 -0.9503069678
C -3.8404477864 -1.2658993207 -2.1218491195
C -3.4384749820 0.2131663847 -2.1069804730
C 3.7920778724 0.3907396030 0.0199326943
C 5.1642002070 0.5039376756 0.2457056814
C 5.9752158016 1.2536500469 -0.5993356559
C 5.3963112952 1.9001532841 -1.6829410166
C 4.0309788436 1.8070270975 -1.9327404251
C 3.2380920161 1.0500001946 -1.0814481436
Cl 6.4023126072 2.8541902215 -2.7541390069
H 0.2061558859 0.2363032210 3.0030522621
H 1.1625614902 -1.2661414963 2.9043533269
H 1.9084548479 0.2383158976 3.4950201887
H 1.6610639897 1.2776216634 1.2614637247
H 3.5237063335 -0.6432232786 1.8627324812
H -1.3433093715 -0.9194184101 -1.0023873356
H -2.6552946637 1.7229578788 -0.7679577224
H -4.6637737488 0.8865640847 0.3083595414
H -3.2714938873 0.5587923274 1.3409247396
H -4.8109787470 -1.4247121583 1.2142591732
H -3.2304101355 -1.8143873595 0.5494424883
H -5.7129741062 -1.0473762732 -1.0726322377
H -5.0188395959 -2.6637259872 -0.9558181114
H -2.9491230317 -1.9073873555 -2.0708135999
H -4.3260919803 -1.5029059457 -3.0750706772
H -4.3336469322 0.8267128570 -2.2691850402
H -2.7421903343 0.4382595162 -2.9229696911
H 5.6134240234 -0.0015635744 1.0960350472
H 7.0400862524 1.3382895822 -0.4174819760
H 3.5970779541 2.3202900667 -2.7827457001
H 2.1745528929 0.9743114594 -1.2844027561
