27
CONF1
C -1.1973082924 0.8877067934 1.2418055955
N -1.1508194089 0.8465102364 -0.2583374902
O -0.8147591424 2.0591934579 -0.7453211338
C -2.4793645728 0.3376420423 -0.7950538526
C -2.4716747456 -1.1760531472 -0.5876087523
C -0.9722155611 -1.5760197748 -0.4800435939
C -0.1949974073 -0.2937345930 -0.7523485434
C 1.1863695029 -0.1280642828 -0.2068366557
C 1.6585276722 -0.8146071883 0.9149663246
N 2.8802889956 -0.6478629450 1.4359373737
C 3.6907759706 0.2387129656 0.8419939705
C 3.3238017481 0.9728601386 -0.2804982434
C 2.0562904824 0.7820753163 -0.8140136341
H -1.4619295879 -0.0876450246 1.6597277151
H -1.9476988597 1.6320669185 1.5101940302
H -0.2157214273 1.2023165432 1.5956774582
H -2.4703068098 0.6130081262 -1.8517606362
H -3.2829787983 0.8727539661 -0.2864164062
H -3.0103591839 -1.4565213764 0.3206447023
H -2.9612195743 -1.6725909502 -1.4277305048
H -0.6944107139 -2.3396593755 -1.2098709229
H -0.7590184861 -1.9801038410 0.5108869199
H -0.1729584209 -0.0934684436 -1.8286283259
H 1.0264788445 -1.5374349928 1.4257223767
H 4.6793783687 0.3604937820 1.2809702999
H 4.0209765334 1.6727421477 -0.7288311864
H 1.7348530750 1.3256835909 -1.6958501805
