44
CONF27
C -0.4098269645 3.6700345933 0.8215083276
C -0.4798489912 2.3941202452 -0.0129267802
C 0.4907753254 1.3274087288 0.5222902729
C 0.4248178549 0.0344457104 -0.2529376493
C -0.7424280696 -0.7520899436 -0.4079122182
C -0.7813136611 -1.7967268078 -1.3770507537
C 0.3595606465 -2.1292779682 -2.0906727823
C 1.5491415282 -1.4475365433 -1.8938768703
C 1.5441274801 -0.3690218859 -0.9908012053
O 2.6762373780 0.3819679204 -0.8128698114
C 3.8029153464 0.0720835561 -1.4839223997
C 3.9099610663 -0.9516405171 -2.3561990130
C 2.7678741358 -1.8030583689 -2.6363877051
O 2.8173209250 -2.7430391011 -3.4340007660
C 4.9015172556 1.0194670542 -1.1206697711
O 4.7620702458 1.9332997910 -0.3397998055
O 6.0366853682 0.7242619576 -1.7671570516
C -2.0315986184 -2.5211434304 -1.6818784634
O -2.0680245065 -3.4874123413 -2.4566727263
C -3.2029302213 -1.9795701203 -1.0482916665
C -3.0880691632 -1.0396786644 -0.0740829338
N -1.8924990304 -0.5087454820 0.3515187292
C -1.7912065048 -0.1836554303 1.8092567230
C -0.8404113461 -1.1235677000 2.5356607695
C -4.3663162632 -0.4876229965 0.4924146979
O -5.3575809340 -1.1556116001 0.6793457674
O -4.2974007784 0.8418713869 0.6803052713
H -1.0835115410 4.4358852748 0.4260067797
H -0.6964020482 3.4712000344 1.8603820816
H 0.6057402308 4.0806099613 0.8262654635
H -1.5061667696 2.0113054263 -0.0212641747
H -0.2193991134 2.6084182467 -1.0562066857
H 1.5031474978 1.7270926722 0.4538048199
H 0.3204327990 1.1651777551 1.5904139676
H 0.3135451493 -2.9328170140 -2.8170110943
H 4.8491633949 -1.1405627474 -2.8593840851
H 6.7171315963 1.3641799094 -1.4961654583
H -4.1841877260 -2.3308436833 -1.3427546186
H -1.5338030180 0.8667898442 1.9513735674
H -2.7883099469 -0.3173885481 2.2280990011
H -1.1568632709 -2.1627004826 2.4049657333
H 0.1916825647 -1.0286794771 2.1899884275
H -0.8660658791 -0.8846036614 3.6027297476
H -5.1596837091 1.1473733303 1.0130444526
