52
CONF19
C -4.1218428205 -2.4818145230 -0.8931959618
C -3.6376848441 -1.1070126660 -0.5213722173
C -2.9061754453 -0.9039763837 0.6448342827
C -2.4584553243 0.3741709244 0.9978219381
C -2.7546428902 1.4727478045 0.1896512308
C -3.4902006305 1.2637793129 -0.9779844000
C -3.9252017196 -0.0047370358 -1.3390471000
O -1.7265715440 0.4396324070 2.1483187461
C -1.1016302152 1.6844254588 2.4872098284
C -0.1421576080 1.4097953224 3.6455514468
C 0.9563866731 0.4127676351 3.2801378280
N 1.8656856188 1.0214693940 2.3007682653
C 3.0578528129 0.2152319410 2.0188108222
C 2.7858120562 -1.1214630699 1.2898246527
C 2.1092794879 -0.9036463760 -0.0373346288
C 2.8739368294 -0.5584218960 -1.1639666359
C 2.2711937599 -0.2825174670 -2.3852226762
C 0.8609699774 -0.3369128087 -2.4992674036
C 0.1026627757 -0.6707408176 -1.3853151077
C 0.7257085360 -0.9536924498 -0.1644945343
O 0.3559939959 -0.0530581089 -3.7344033676
C -1.0685138127 -0.0955098290 -3.8728864553
O 2.9381233380 0.0458797696 -3.5281071393
C 4.3664783561 0.1139176022 -3.4551844314
O 0.4256430962 2.6544155208 4.0617869567
H -5.1789135240 -2.6029661976 -0.6285622758
H -4.0356600110 -2.6492301320 -1.9708491983
H -3.5560518137 -3.2576014976 -0.3714087015
H -2.6538903448 -1.7399231396 1.2912500225
H -2.4265128734 2.4717837136 0.4490212491
H -3.7179008594 2.1139522013 -1.6143970374
H -4.4861881969 -0.1482711293 -2.2580562664
H -0.5555548428 2.0870135233 1.6223903813
H -1.8542609632 2.4215455221 2.7960791724
H -0.7163563601 1.0107445117 4.4903932395
H 1.5361313077 0.1880979007 4.1841723419
H 0.4873750049 -0.5244008158 2.9434912556
H 1.3683111723 1.1489680228 1.4218058306
H 3.5700183637 0.0137844524 2.9679554996
H 3.7361141088 0.8175550626 1.4009004407
H 2.1683891934 -1.7680767930 1.9224595415
H 3.7472068751 -1.6290241348 1.1470756060
H 3.9534355748 -0.5156342543 -1.0700476002
H -0.9787174403 -0.7150203604 -1.4479757412
H 0.1089131842 -1.2174263823 0.6898851402
H -1.4568065072 -1.0976662590 -3.6517233336
H -1.5512897106 0.6340553338 -3.2116144482
H -1.2722957927 0.1564515186 -4.9141631400
H 4.6999407145 0.3866876634 -4.4568726725
H 4.6886461720 0.8784917832 -2.7380805992
H 4.7936076214 -0.8566935467 -3.1757773649
H 1.2196600756 2.7580747668 3.5097305016
