41
CONF21
C 1.7858994459 3.3075098568 -0.7998948568
C 2.1423713060 2.2994155031 0.2437174063
N 1.1750933596 1.4910465922 0.6879348863
C 1.5572602831 0.6277564939 1.6497539862
N 2.7894459255 0.5138501793 2.1488428988
C 3.6648385815 1.3629420705 1.6097376866
N 3.4104456601 2.2797897087 0.6675851398
O 4.8992208018 1.2502172687 2.0926607540
C 5.9025027794 2.1433411211 1.5639396373
N 0.6289681095 -0.2274726052 2.1928783216
C -0.7506937364 -0.4080368027 1.9549055818
O -1.3528189896 -1.2710899094 2.5620552707
N -1.3002958485 0.4410228705 1.0292081734
S -2.8993250479 0.2507004679 0.4440797944
O -2.9338764618 1.1329714294 -0.7252435600
O -3.8203562712 0.4247997567 1.5605745070
C -3.0211327130 -1.4645177805 -0.1016882813
C -3.6934801716 -2.3386685739 0.7456089107
C -3.9460566638 -3.6387155364 0.3248574766
C -3.5569445383 -4.0463111687 -0.9466783109
C -2.8986518620 -3.1626890732 -1.7927005594
C -2.5997820028 -1.8652844162 -1.3748507312
C -1.8545951775 -1.0099000168 -2.3484339224
O -2.1595249926 -0.8960586244 -3.5106937361
O -0.7507325025 -0.4699875292 -1.7914971421
C -0.0141205662 0.4141851587 -2.6639068197
H 2.0044705875 4.3112901423 -0.4231237340
H 0.7315483225 3.2391204598 -1.0676799728
H 2.4099883195 3.1605613109 -1.6867661906
H 6.0217769353 1.9945219649 0.4881402552
H 6.8165008904 1.8768545985 2.0938356185
H 5.6318707700 3.1837839583 1.7587220762
H 0.9889095710 -0.8535475635 2.9004097993
H -0.6674742848 1.0236795915 0.4715125495
H -4.0141305854 -1.9897863861 1.7190953852
H -4.4607907671 -4.3252756351 0.9881159834
H -3.7702532563 -5.0547531710 -1.2851705606
H -2.6022741333 -3.4645000382 -2.7914717267
H 0.8619005878 0.7176730704 -2.0910472693
H -0.6336984316 1.2784493111 -2.9193392930
H 0.2779962756 -0.1082477690 -3.5779853313
