42
CONF3
C -5.0381173782 0.8259779001 -2.1715544444
C -3.8533021405 0.6030201638 -2.8716416567
C -2.7086060823 0.1840789296 -2.2005811796
C -2.7331454095 -0.0195806548 -0.8177729842
C -3.9253329056 0.2010313569 -0.1243449786
C -5.0716248016 0.6227794745 -0.7949977017
C -1.5014034215 -0.4378533158 -0.0455352137
C -0.4254499109 0.6332262229 0.0169808366
C 0.4277237058 0.8653845864 -1.0660656867
C 1.4557695494 1.7974052098 -0.9803901860
C 1.6195452212 2.5026393245 0.2051518361
C 0.7665896114 2.3210675280 1.2873677008
C -0.2528693275 1.3826825807 1.1829268113
Cl 2.9509930993 3.6418850791 0.3461817124
C -0.8874527001 -1.7583006402 -0.5129769020
O -1.3265831238 -2.4210184012 -1.4258092916
C 0.3648468888 -2.2403012123 0.2303864401
C 0.6588051394 -1.6605960976 1.6164173940
O -0.1008130872 -1.6933916074 2.5669968631
C 2.0298502300 -1.1125704387 1.6014790680
C 2.7298948453 -0.4928143793 2.6306723118
C 4.0195195493 -0.0461060224 2.3594682154
C 4.5943003294 -0.2186704522 1.0919677943
C 3.8930762595 -0.8413046262 0.0639196760
C 2.6033745591 -1.2829199133 0.3379166814
C 1.6555852117 -1.9555895496 -0.5733509105
O 1.8436635419 -2.2518281641 -1.7339933154
H -5.9291724025 1.1539792322 -2.6977055810
H -3.8201254555 0.7539920418 -3.9463012340
H -1.7987977797 0.0089626025 -2.7638842892
H -3.9564344941 0.0432742971 0.9504274635
H -5.9891523306 0.7912844158 -0.2396802430
H -1.8070546150 -0.6353721793 0.9908818022
H 0.3171888329 0.3007998511 -1.9866226688
H 2.1281259931 1.9554074482 -1.8158774871
H 0.9061050727 2.8861118525 2.2019211126
H -0.9075787939 1.2148263571 2.0329721600
H 0.2632612534 -3.3303491527 0.3148137829
H 2.2789777613 -0.3568957927 3.6080913274
H 4.5928122688 0.4464250868 3.1381173426
H 5.6021728067 0.1418263288 0.9137620604
H 4.3308339321 -0.9745532925 -0.9197345393
