40
CONF1
C -3.6018421306 -2.1886790266 -3.3541649813
C -3.0142008729 -1.2899179010 -2.3036303917
C -3.6681563655 -1.0684034529 -1.0888299367
C -3.1273507193 -0.2256236122 -0.1243165677
C -1.9086392065 0.4219885849 -0.3521616108
C -1.2524383673 0.2145834071 -1.5734864850
C -1.7987706000 -0.6312858709 -2.5274955371
C -1.3750204133 1.3294011013 0.6624149799
C -2.0327873299 2.3052103143 1.3951023341
C -1.0232674870 2.9311042702 2.1389730288
N 0.1791608143 2.4038285251 1.9168397526
N -0.0492083305 1.4239701240 1.0185443964
C 1.0335517714 0.5843471420 0.6387702608
C 2.2498073552 1.1690325444 0.2927151231
C 3.3156335162 0.3574087265 -0.0708619644
C 3.1398919256 -1.0226925868 -0.0853565655
C 1.9287905239 -1.6117055343 0.2636443292
C 0.8670924692 -0.7994171510 0.6377802799
S 4.5165018468 -2.0710934690 -0.5671843711
O 3.9547405980 -3.3426520665 -1.0531706315
O 5.4078900850 -1.2631185750 -1.4163411817
N 5.3093026053 -2.3698628678 0.8907405227
C -1.1568526457 4.0612238253 3.1012830714
F -0.3985981571 5.1301197593 2.7519516305
F -2.4394894815 4.4816091584 3.1701987492
F -0.7778020318 3.7170957846 4.3581586242
H -4.4262805128 -2.7819318334 -2.9520627661
H -3.9878829888 -1.5987498449 -4.1936631519
H -2.8448875074 -2.8676805376 -3.7584515107
H -4.6115608965 -1.5691145483 -0.8901691394
H -3.6434752216 -0.0796453027 0.8197112735
H -0.3182586951 0.7267490433 -1.7819084974
H -1.2769313080 -0.7784986666 -3.4692258104
H -3.0824777748 2.5485978181 1.3486062194
H 2.3535274941 2.2477434489 0.2976144380
H 4.2653743620 0.7962725751 -0.3544030963
H 1.8138260794 -2.6894591538 0.2521004269
H -0.0807864847 -1.2371015726 0.9285728224
H 5.3058672906 -3.3640945016 1.1039608414
H 6.2560069979 -1.9995585638 0.8659062867
