119
CONF524
C 3.3646625713 -0.3680863410 -0.7441817632
C 3.9784290376 0.2165743868 -2.0209558546
C 5.2044540480 1.0763291463 -1.7194688607
C 6.2610045153 0.2926563878 -0.9307018634
C 5.6623650854 -0.3169850126 0.3544203657
C 6.7559241479 -1.0659693502 1.1230407633
C 7.9094280603 -0.1344200785 1.4611061146
O 8.9220932867 -0.8066640296 2.2326621121
C 8.5962752460 0.4539723216 0.2121061621
C 9.3487288316 -0.6372269660 -0.5509365234
C 9.5029145545 1.6633495102 0.7160016487
C 8.6990128867 2.9529700447 0.4033260990
C 7.2860417032 2.4919207994 0.0332394165
C 7.5181335495 1.1501403355 -0.6697648108
O 8.1769479853 1.4114758160 -1.9336390618
C 10.8878696091 1.6711919456 0.1743841818
C 11.3943645448 2.1920220249 -0.9568247180
C 12.8215046110 1.9049383490 -1.0210421233
O 13.6482186651 2.1853240738 -1.8674351048
O 13.1781897440 1.1994788507 0.1059409066
C 12.0061425857 1.0179865441 0.9224713846
C 4.4048837431 -1.1934884134 0.0641097965
C 4.7776882869 -2.4642159973 -0.7192492456
C 3.7255132021 -1.6675993528 1.3693658079
C 3.0942950428 -0.5513852886 2.1999551347
C 2.0728691324 0.2278766963 1.3846817416
C 2.7005166381 0.7379526288 0.0928194156
O 0.9766527928 -0.6941299061 1.1217043521
C -0.2290415658 -0.0971098211 0.7644753223
C -1.1732670907 -1.1860032181 0.2908071356
C -2.5677731400 -0.6335279998 0.0253806203
O -2.5151396470 0.1688192132 -1.1588857248
C -3.0454491417 0.1905529158 1.2334267158
O -4.2550967949 0.9201561794 0.9561637949
C -5.3730230397 0.1396347228 0.6495285499
C -6.6313098511 0.8846599610 1.0457674315
C -7.8676878310 0.1003667432 0.6206845455
O -7.9424670181 -1.0763188263 1.4304667036
C -7.7741300152 -0.2560594426 -0.8739008680
O -8.7920657125 -1.1848857951 -1.2906709528
C -10.1148051165 -0.7712104419 -1.1038297412
C -11.0007901823 -1.4522536094 -2.1284567296
C -12.4714447848 -1.1451091706 -1.8487627145
O -12.7626873054 0.2520232604 -2.0496271554
C -12.8278098312 -1.4420901570 -0.3918181663
O -14.1725893746 -1.0563631187 -0.1108652669
C -11.8396551024 -0.7606819909 0.5663599858
C -12.0631898277 -1.1420832222 2.0133273339
O -10.5072239995 -1.1905517867 0.2160739811
C -6.4396264207 -0.9306159544 -1.2059059256
C -6.2465345695 -1.1756603975 -2.6870188884
O -5.3769138955 -0.0602493483 -0.7765287756
C -2.0014107585 1.2291202303 1.6492618446
C -2.3897791773 1.9950344721 2.8965867411
O -0.7758939469 0.5364365605 1.9357641067
H 2.5687094916 -1.0676242858 -1.0369326691
H 4.2629028492 -0.5947309768 -2.7020172386
H 3.2233326715 0.8153763742 -2.5462315240
H 5.6275077991 1.4437999568 -2.6621611295
H 4.9028743203 1.9596059654 -1.1437613894
H 6.6055653196 -0.5352398851 -1.5660672472
H 5.3339762289 0.5172810827 0.9899065344
H 7.1297798466 -1.9132420133 0.5377995685
H 6.3638884510 -1.4679807816 2.0638227206
H 7.5099514170 0.6992707057 2.0595012044
H 8.5384851765 -1.0037586281 3.0960857965
H 9.9132395050 -0.2111815272 -1.3805485784
H 10.0391127840 -1.1665097379 0.1089588241
H 8.6531263725 -1.3732772082 -0.9634599726
H 9.6000413746 1.5411492276 1.8000727684
H 9.1462659484 3.4736841406 -0.4459523876
H 8.7087744598 3.6412814418 1.2527511082
H 6.7750822040 3.2094767771 -0.6165963831
H 6.6604849503 2.3563905026 0.9210623053
H 7.6668489495 2.0921346451 -2.3902843399
H 10.8780800359 2.7322063346 -1.7371021175
H 12.1727799293 1.4928527423 1.8978323998
H 11.8423864918 -0.0545203300 1.0795739147
H 5.3773993304 -2.2644112298 -1.6106641550
H 3.8639170574 -2.9772996262 -1.0394046083
H 5.3404066952 -3.1585288715 -0.0869207482
H 4.4370148726 -2.2333064778 1.9802326195
H 2.9385795022 -2.3781152366 1.0861018638
H 3.8579363391 0.1510226820 2.5550449517
H 2.6082300076 -0.9688000862 3.0890974815
H 1.6808676260 1.0681479410 1.9713024202
H 1.9500760765 1.2493861047 -0.5227331586
H 3.4300189916 1.5042642263 0.3793757494
H -0.0870022357 0.6794559542 -0.0075015887
H -0.7867892731 -1.6533845882 -0.6206629284
H -1.2251838549 -1.9493770395 1.0754681804
H -3.2596761921 -1.4742449153 -0.1284267606
H -3.4385739381 0.3789830298 -1.3697887813
H -3.2175267234 -0.4938686687 2.0799614271
H -5.3136425159 -0.8451043328 1.1432939918
H -6.6205870561 1.8630126422 0.5525352090
H -6.6532548073 1.0399535539 2.1289728251
H -8.7593893123 0.7226507572 0.7849140212
H -8.8144257631 -1.4603288812 1.2409597029
H -7.8615021153 0.6721302645 -1.4615108875
H -10.1971205964 0.3271880079 -1.1651328229
H -10.7348117465 -1.1184754554 -3.1372920345
H -10.8298016503 -2.5338576111 -2.0667435838
H -13.1132727119 -1.7532752685 -2.5003530029
H -12.8218121575 0.4110401468 -2.9994526139
H -12.7656590889 -2.5259743625 -0.2323075736
H -14.2920658388 -0.1825264346 -0.5119697201
H -11.9097056819 0.3324442561 0.4431543990
H -11.9665816285 -2.2260060602 2.1370722773
H -13.0638363547 -0.8407769240 2.3311884806
H -11.3283086245 -0.6458588878 2.6538408881
H -6.3775022258 -1.8783970931 -0.6478214982
H -5.2646638927 -1.6230397369 -2.8665677927
H -6.3127895137 -0.2320226704 -3.2385507088
H -7.0141651433 -1.8561061776 -3.0614518440
H -1.8408951148 1.9247409246 0.8092966928
H -1.5919571245 2.6909663615 3.1709429097
H -2.5583902369 1.3042051472 3.7294426032
H -3.3050701286 2.5650300196 2.7232972475
