36
CONF116
C 1.6227926339 -0.1471421463 -4.6099795531
C 0.1404011677 -0.3029145055 -4.3536715077
O -0.1728344232 0.0252472285 -2.9586070239
C 0.0419380598 -0.9347108787 -2.0554812945
O 0.3807186724 -2.0725432042 -2.3020015594
C -0.1651030050 -0.3657452083 -0.6569114869
S -0.3524991474 -1.8246983246 0.4833811029
P -0.9814873901 -0.8068455091 2.2186549731
S -2.3416610944 0.5726937479 1.9970207820
O -1.3703413331 -2.0510380086 3.1684873476
C -2.6795905017 -2.6753850282 3.0623558624
O 0.4101450561 -0.3499880239 2.8754706546
C 0.4330442658 0.6473792211 3.9364642772
C 0.9886389685 0.5346369061 -0.2849832930
C 0.7476157403 1.8699391316 0.0387619980
C 1.8056366698 2.7068275828 0.3869571172
C 3.1079831899 2.2158068852 0.4053021262
C 3.3521381038 0.8837149275 0.0707138595
C 2.2977446694 0.0454396556 -0.2710769762
H 1.8251008790 -0.3401107964 -5.6680131314
H 1.9509607878 0.8692522199 -4.3750553481
H 2.2025214553 -0.8569753044 -4.0139557850
H -0.4492875132 0.4141154227 -4.9270251623
H -2.8095667740 -3.1149831841 2.0694131889
H -3.4626891257 -1.9387259079 3.2577564697
H -2.6923048151 -3.4555948159 3.8230368469
H -0.1126538357 0.2835782774 4.8111103998
H -0.0012027741 1.5836048642 3.5772547923
H 1.4868870248 0.7851847258 4.1775024309
H -0.2690305793 2.2499517243 0.0264659946
H 1.6091489614 3.7428073415 0.6447895552
H 3.9319354345 2.8674248245 0.6785121520
H 4.3663810220 0.4972635295 0.0801449980
H -0.2117219727 -1.3165039880 -4.5594301546
H -1.1021242467 0.1989494763 -0.6366343825
H 2.4875063583 -0.9958525582 -0.5163460967
