34
CONF3
C 0.2473411303 1.9113807033 -1.7178026692
C -0.6528549432 1.0447756668 -0.8857475435
C -0.2356276135 0.2366578842 0.1274963483
C -1.2191049282 -0.4881112732 1.0669693818
C -2.6669943225 -0.0303339721 0.8185182063
C -2.9918835922 0.1055785493 -0.6603661276
C -2.1036139244 1.1876400061 -1.2535062812
C -0.8945856531 -0.1831061628 2.5430485388
C -1.0962080325 -2.0068553218 0.8437281069
C 1.1663379226 -0.0052156359 0.4144402094
C 2.1937812116 -0.1017407786 -0.4613602085
C 3.5574879126 -0.3935909997 -0.0048700519
O 3.8609241308 -0.4673354956 1.1894575522
C 4.6133310971 -0.6110718995 -1.0639756106
H -0.2619843854 2.8595114983 -1.9260670743
H 0.4464164630 1.4459358862 -2.6919749640
H 1.2069623816 2.1190627390 -1.2416883593
H -2.8165364351 0.9475734937 1.2976622355
H -3.3436196429 -0.7365648487 1.3142254032
H -2.8186192463 -0.8445105007 -1.1805074787
H -4.0472242299 0.3609006410 -0.8040587859
H -2.4485696715 2.1830453871 -0.9312987660
H -2.1715213758 1.2011369090 -2.3501997147
H -0.8155154549 0.8960128673 2.7128221139
H -1.7057154110 -0.5694152668 3.1701573335
H 0.0296400674 -0.6602667071 2.8799082875
H -1.3644164767 -2.2847711576 -0.1804258016
H -0.0684386734 -2.3414557715 1.0225472695
H -1.7553132538 -2.5449375823 1.5344974011
H 1.4267788331 -0.2025013797 1.4532268469
H 2.0353833739 -0.0207684776 -1.5312448084
H 5.4088750513 0.1295304290 -0.9286911791
H 5.0645706734 -1.5980901558 -0.9177729499
H 4.2205166947 -0.5380988553 -2.0794730619
