44
CONF22
C -4.5787719065 1.6084680511 2.3205830065
N -3.4228828949 1.3372100253 1.4571594026
C -3.7740368330 1.4262126733 0.0213447880
C -4.5676652097 0.1252673787 -0.2850838065
C -4.0258307157 -0.8899530444 0.7545637297
C -2.9770021432 -0.0710491192 1.5586163810
C -1.5823446549 -0.1615786840 0.9252636857
C -1.6580935409 0.2205959096 -0.5497081220
C -2.4614868325 1.4942780010 -0.7709530811
O -0.3098235484 0.4719304134 -1.0681166236
C 0.4204822516 -0.5964464182 -1.4285882236
O 0.0144979068 -1.7411904928 -1.4266380594
C 1.8386544077 -0.1815155507 -1.7822078609
C 2.4270290812 -1.1035677577 -2.8545400047
O 1.6817478736 -1.0505641333 -4.0728791724
C 2.6809212750 -0.1936330207 -0.5188010979
C 2.8049632695 -1.3578439369 0.2465989862
C 3.5985181782 -1.3674830576 1.3903788637
C 4.2770965871 -0.2156372511 1.7835646312
C 4.1569976726 0.9472497839 1.0263112087
C 3.3625062967 0.9577895946 -0.1175132449
H -4.2809650915 1.4887584062 3.3674914660
H -4.9007479582 2.6448112989 2.1744365417
H -5.4465445951 0.9527442236 2.1364188937
H -4.3616757875 2.3306787335 -0.1649767404
H -5.6399895734 0.2904803198 -0.1511750929
H -4.4159322336 -0.2044701904 -1.3172832580
H -3.5755819995 -1.7720165208 0.2892664652
H -4.8245852097 -1.2427423976 1.4123795937
H -2.9231957413 -0.3725048678 2.6095464416
H -1.1816123981 -1.1752804070 1.0306167294
H -0.9095014364 0.5324380940 1.4422280639
H -2.0807844716 -0.6029481864 -1.1322715459
H -1.8825647389 2.3569947144 -0.4226543860
H -2.6654518415 1.6243518065 -1.8395381340
H 3.4776373382 -0.8276208254 -3.0171192209
H 2.3888366441 -2.1420120877 -2.5143783761
H 3.6855893575 -2.2772015654 1.9765380138
H 4.8948568920 -0.2242497144 2.6761256976
H 4.6809850533 1.8496688371 1.3261239764
H 3.2691898565 1.8666952765 -0.7052409138
H 2.2734391274 -2.2577846743 -0.0480073063
H 1.8110392611 0.8429613870 -2.1679897323
H 1.8171143715 -0.1781190923 -4.4640719888
