22
CONF229
C 2.3250844178 -1.0440900434 0.1649149042
C 1.1994625944 -0.0649461430 -0.1541539643
C -0.1720241301 -0.6474721350 0.1739593582
C -1.3237216785 0.3254186622 -0.0845016447
C -1.2732427572 1.5620484929 0.8057380015
O -2.4325271676 2.3797229935 0.6281516584
O -2.5319832926 -0.4173234116 0.1949890681
O -0.3360201194 -1.8141265811 -0.6431513588
O 1.2825732556 0.3442121090 -1.5277897384
O 3.6029777107 -0.4511106123 -0.0830325621
H 2.1996026237 -1.9620081516 -0.4267372117
H 2.2979509711 -1.3071816672 1.2276680891
H 1.3603971532 0.8418507518 0.4392333961
H -0.1870154298 -0.9273982600 1.2410772136
H -1.3143547548 0.6262325396 -1.1399661295
H -1.1670945145 1.2566956797 1.8580441084
H -0.4164383966 2.1858628806 0.5354505834
H -3.1928649040 1.8575666928 0.9164253993
H -3.1971989536 -0.1691211558 -0.4577218674
H -1.2797137368 -2.0305764931 -0.6126169857
H 0.9705399654 -0.4046004250 -2.0575272472
H 3.5856119372 -0.1396555165 -0.9984530810
