46
CONF59
C -1.9041924015 -0.5030979929 0.8698907098
C -1.9703758595 -1.3452252063 -0.3814760916
C -2.9265223693 -1.0041003174 -1.4938219084
C -1.4104918067 -0.8084543583 -1.6992177922
C -0.8221984919 0.5378764020 -1.7867119355
O -1.3097668374 1.5800973703 -1.3918078519
O 0.4009101352 0.4626492358 -2.3766836428
C 1.1364074491 1.6984780917 -2.5179316139
C 2.0417249224 1.9686768202 -1.3427317088
C 1.7971563741 1.4183613084 -0.0872436617
C 2.6497869757 1.7226789673 0.9720633378
C 3.7317170351 2.5806366854 0.8044530015
C 3.9608493032 3.1342753651 -0.4516674273
C 3.1302612877 2.8269763775 -1.5242979609
O 2.4229414372 1.2615075641 2.2556601568
C 1.8684168754 0.0091402726 2.4590406672
C 0.9942314786 -0.1149007968 3.5351743739
C 0.4691338678 -1.3664321637 3.8454233683
C 0.8051012407 -2.4816147199 3.0811916928
C 1.6830147537 -2.3403775245 2.0074661187
C 2.2258963231 -1.0980933424 1.6916229813
C -3.8481756807 0.1319083744 -1.4050131040
C -4.9158580326 0.3018941206 -2.1849563710
Cl -6.0118283557 1.6466942913 -1.9840424324
Cl -5.3580561500 -0.7672750143 -3.4901081807
C -1.7211220209 -2.8170953051 -0.1338558326
H -0.9405717248 -0.6634622557 1.3658748759
H -2.0100495371 0.5649452277 0.6784611297
H -2.6936759020 -0.8150144171 1.5624730981
H -3.3025794749 -1.8522231392 -2.0580421314
H -0.9295524867 -1.5456042633 -2.3329416104
H 0.4310243488 2.5240800665 -2.6592099808
H 1.7274169025 1.5779240563 -3.4288576544
H 0.9593155806 0.7511531924 0.0768310519
H 4.3763893361 2.8022629911 1.6481737818
H 4.8061826053 3.7997837860 -0.5955771447
H 3.3270030440 3.2497274731 -2.5052280001
H 0.7380610217 0.7645005934 4.1169306550
H -0.2134065113 -1.4645376838 4.6838575563
H 0.3869693994 -3.4540858596 3.3193896702
H 1.9580600288 -3.2051901997 1.4116074810
H 2.9188736945 -0.9914274983 0.8640063971
H -3.6827209927 0.8880371985 -0.6467784663
H -2.4562171024 -3.2028917961 0.5810724274
H -0.7224521886 -2.9648780549 0.2914213007
H -1.7970301816 -3.3982839330 -1.0568597486
