51
CONF26
C 2.5365933646 -0.6481374595 -0.6606131973
C 2.3718688845 0.8136226354 -0.3368272694
C 1.7352119306 1.6789212909 -1.2465443602
C 1.6129741171 3.0389366989 -0.9663446749
C 2.1387735643 3.5691759036 0.2033481213
C 2.7647911157 2.7264698211 1.1096021925
C 2.8741131491 1.3530666404 0.8636527126
C 3.5260200806 0.5117577920 1.8975113778
C 2.8498105063 -0.5603110624 2.4904079111
C 3.4544960568 -1.3177167284 3.4867722794
C 4.7480615557 -1.0185500716 3.9062598004
C 5.4294850317 0.0473828467 3.3267628963
C 4.8218674788 0.8081883631 2.3333472176
C 1.1855753351 1.1655209987 -2.5470232809
O 0.1342052555 0.1723762991 -2.3476575197
C -1.0762105343 0.6752736204 -2.0016770965
O -1.3202753268 1.8589515652 -1.9168463256
C -2.0294877482 -0.4317387328 -1.7544608834
C -3.1862192816 -0.1575692382 -0.7819692638
C -3.4629310111 -0.3944048679 -2.2520469698
C -3.9629579479 0.7858549779 -3.0536375985
C -4.0440904484 -1.7176434965 -2.7014307732
C -3.4930512980 -1.1501981082 0.2398898637
C -3.8734767365 -0.8972766571 1.4946285606
C -4.1828087609 -1.9758669165 2.4957700193
F -5.4540813709 -1.8934780734 2.9467337457
F -4.0263350648 -3.2056293572 1.9540986992
F -3.3742003766 -1.9069840316 3.5765666359
Cl -4.0652667057 0.7087932515 2.1424190483
H 1.6283656783 -1.2154893556 -0.4305282360
H 2.7351467134 -0.7986793501 -1.7251839400
H 3.3579517198 -1.0863678732 -0.0919238648
H 1.0872717484 3.6771945900 -1.6694338445
H 2.0426707878 4.6285189103 0.4171946234
H 3.1553812740 3.1210332984 2.0427685235
H 1.8346882732 -0.7854269400 2.1780467786
H 2.9111304391 -2.1395122670 3.9424119759
H 5.2203786639 -1.6112945267 4.6829153323
H 6.4387274475 0.2864984321 3.6469883973
H 5.3571642512 1.6347636686 1.8753912798
H 1.9391167074 0.6296081002 -3.1296279984
H 0.7853590218 1.9882558971 -3.1442262339
H -1.5754669823 -1.4160800976 -1.7064238354
H -3.2448431138 0.8826756669 -0.4768465088
H -3.6870446216 0.6710610812 -4.1079066183
H -5.0557009680 0.8271733839 -2.9936706968
H -3.5536663650 1.7291440811 -2.6921146743
H -3.6028450854 -2.5742765023 -2.1872940786
H -3.8689865010 -1.8501465138 -3.7739679097
H -5.1260126299 -1.7348783263 -2.5308743960
H -3.4112410725 -2.1990572655 -0.0263865412
