45
CONF94
C -1.6538551651 -1.6827349707 1.4506033473
C -1.7040068694 -1.6082890039 -0.0406681113
C -1.7485911211 -0.4712799129 -0.7441948848
C -1.8101523995 -0.4407078107 -2.2130898358
C -0.8433264811 0.4466063062 -3.0594610138
C -2.3378737411 0.7235834035 -3.0049260013
C -2.9167284631 1.9396598210 -2.3156141930
C -3.0691993928 0.3797185265 -4.2884962313
C 0.2700678114 1.1724197925 -2.4293696143
O 1.4314186870 1.0093631968 -2.7592095175
O -0.0935777141 2.0228450787 -1.4362245200
C 0.9949520243 2.6444050529 -0.6993917410
C 1.5063324877 1.7052262596 0.3540625102
C 0.7106954267 1.3830473180 1.4513568639
C 1.1360068736 0.4961962980 2.4253893363
C 2.3816107990 -0.1209160943 2.3550848030
C 3.1755431839 0.1999952479 1.2618515401
C 2.7567502435 1.1008838398 0.2894215617
F 3.5979917246 1.3856428641 -0.7155137988
F 4.3899654386 -0.3614181693 1.1274556938
C 2.8083147027 -1.1087986823 3.3993079762
O 2.1582838519 -2.3483943738 3.1140779610
C 2.4741812605 -3.3308598254 4.1022021658
F 0.3296784630 0.2404798989 3.4699125161
F -0.5008642428 1.9545652315 1.5763632451
H -0.7189333837 -2.1481395974 1.7890116629
H -2.4698663024 -2.3017594301 1.8425426508
H -1.7261503076 -0.6896832307 1.9028156694
H -1.6987179894 -2.5583673338 -0.5772110500
H -1.7466774296 0.4762394216 -0.2119909826
H -1.9504537165 -1.4196053763 -2.6674028700
H -0.4980955791 -0.0456284013 -3.9629660444
H -3.9869996509 1.7740493842 -2.1497389756
H -2.8085942272 2.8190635283 -2.9597459515
H -2.4504957043 2.1644349346 -1.3586827704
H -2.6425606241 -0.5050777268 -4.7695721700
H -3.0167141250 1.2163235341 -4.9941983718
H -4.1248760158 0.1794433897 -4.0746433553
H 1.7923534483 2.9386591814 -1.3815696049
H 0.5445215626 3.5261913501 -0.2418560589
H 2.5154649099 -0.7451827216 4.3953665123
H 3.8994039844 -1.2318271107 3.3834681943
H 1.9474457085 -4.2447537035 3.8207313390
H 3.5555713703 -3.5267736245 4.1322676209
H 2.1407574669 -3.0088460562 5.0991116034
