63
CONF18
C 0.9990944814 -0.8868197588 2.3312419301
C -0.2161510216 -1.7591974276 2.0375704841
N -0.1834311946 -2.2585859423 0.6580696249
C 0.9982264659 -3.1064793065 0.4690286712
C 2.2751617582 -2.2953039762 0.6693457526
C 2.2835100625 -1.6724734640 2.0660046232
N 3.4784619198 -0.8616426478 2.2990616004
C 3.8673297474 0.3077201440 1.6492921317
C 3.2984738561 1.0497985842 0.6204968309
C 3.9697830621 2.2026612111 0.2020718425
C 5.1716731288 2.6020843325 0.7893825965
C 5.7494393509 1.8586911472 1.8216094913
C 5.0831044493 0.7175174216 2.2359449049
N 5.3877729721 -0.2119943263 3.2130255356
C 4.4168451316 -1.1944081528 3.2741537130
O 4.3861712337 -2.1618161722 4.0326943846
C -1.4239760713 -2.9743865748 0.3242666161
C -2.5641108053 -2.0139410186 -0.0143683662
C -2.3264081354 -1.2827414874 -1.3379665608
C -3.1594207640 0.0006910472 -1.4881790452
C -2.8303192107 1.0738642145 -0.4609367999
C -3.7985434544 2.0369465362 -0.1572287510
C -3.5392583611 3.0732613548 0.7341654039
C -2.2861592819 3.1291253378 1.3212610032
C -1.2986662751 2.1978416340 1.0577519385
C -1.5827592870 1.1682506094 0.1616183494
F -2.0203529984 4.1363142991 2.1974937966
C -3.0254702930 0.5549721209 -2.8971214308
C -4.0823977419 0.4549124241 -3.8040047484
C -3.9624160256 0.9285230556 -5.1098685316
C -2.7615961770 1.5010749399 -5.4873523048
C -1.6856134071 1.6202322392 -4.6228722970
C -1.8304215291 1.1432733916 -3.3239373329
F -2.6317772207 1.9721710688 -6.7579454558
H 0.9765390896 -0.5574118436 3.3759821242
H 0.9606416555 0.0068962050 1.7001799505
H -1.1258219567 -1.1687616285 2.1869057096
H -0.2501835911 -2.6037698006 2.7569779090
H 0.9923513194 -3.9681882951 1.1687893379
H 0.9796055040 -3.5123423555 -0.5484290593
H 2.3239041493 -1.5143002234 -0.0971853001
H 3.1518006500 -2.9411801882 0.5482794506
H 2.3471426385 -2.4839751798 2.8010892419
H 2.3689861623 0.7584355293 0.1474679395
H 3.5414461635 2.7956943345 -0.5993503680
H 5.6675535876 3.5020808144 0.4410056050
H 6.6834024328 2.1593506784 2.2844891048
H 6.1954456781 -0.2047385957 3.8156682517
H -1.7244795375 -3.6526841913 1.1455208039
H -1.2251240045 -3.6053580723 -0.5517101847
H -3.5022576048 -2.5794699250 -0.0695422840
H -2.6923743904 -1.2889908389 0.7978766274
H -1.2621638416 -1.0418007961 -1.4431771227
H -2.5728089471 -1.9489486007 -2.1736138858
H -4.2149315692 -0.2662116428 -1.3473758709
H -4.7755467739 1.9778306128 -0.6299044102
H -4.2890653937 3.8197099590 0.9737219042
H -0.3319241437 2.2727129705 1.5450661867
H -0.8172828688 0.4232402662 -0.0331715027
H -5.0179093301 0.0009403124 -3.4892570281
H -4.7812234184 0.8576728739 -5.8178387926
H -0.7627578614 2.0796728246 -4.9606177493
H -0.9987587128 1.2387954580 -2.6316153266
