71
CONF253
C 7.1957510966 -1.7864624251 3.5052704941
C 7.0638803245 -2.3415448873 2.1166074573
C 5.9220413017 -2.1127394241 1.3312365060
C 5.7710220327 -2.6927669305 0.0592339953
C 6.8016279550 -3.4944734110 -0.4316612138
C 7.9545073922 -3.7095667994 0.3179216381
C 8.0786918469 -3.1400370757 1.5794681767
C 4.5323445027 -2.4435928843 -0.7541751297
N 4.8612183500 -1.3134475845 1.8319720630
C 4.9518850746 -0.0003993186 2.1575569495
O 5.9817183919 0.6710172677 2.0807524570
C 3.6552539340 0.5956825726 2.7023409630
N 2.4634416726 -0.1127606196 2.2535331263
C 2.0789550393 0.3060750581 0.8993069756
C 0.8988045633 -0.5146028498 0.4079235890
N -0.2472377974 -0.3479139393 1.3065620497
C 0.1395965420 -0.7495934664 2.6631830431
C 1.3226414354 0.0672494085 3.1585896857
C -1.4054309271 -1.1356184783 0.8653758156
C -1.9764137917 -0.7039039025 -0.4837414888
C -2.3211033095 0.7817126617 -0.5475743723
C -2.9940162243 1.1851796002 -1.8713003324
C -4.3210722471 0.4945884336 -2.1412332794
C -4.6942465383 0.2418106995 -3.4654106673
C -5.9179872455 -0.3422342685 -3.7790287363
C -6.7666020786 -0.6731472532 -2.7365902701
C -6.4410793681 -0.4478216130 -1.4112550021
C -5.2102904890 0.1387395996 -1.1232523784
F -7.9649499357 -1.2500083183 -3.0263831312
C -3.1456365959 2.6958493422 -1.9536271173
C -4.0547960872 3.3758375730 -1.1367030970
C -4.1724513777 4.7614291221 -1.1864628309
C -3.3651788615 5.4558477377 -2.0724754672
C -2.4537877000 4.8271344065 -2.9007666404
C -2.3521995747 3.4384701380 -2.8308024221
F -3.4769645621 6.8113755793 -2.1311585549
H 6.2389321866 -1.8174793253 4.0358091641
H 7.9328700427 -2.3582142238 4.0738794533
H 7.5128123665 -0.7387418317 3.4812762293
H 6.6981283932 -3.9452443111 -1.4146015946
H 8.9678902023 -3.3276142918 2.1748934457
H 4.5968678082 -2.9536257994 -1.7176256158
H 4.3908353251 -1.3726767717 -0.9364601603
H 3.6314240297 -2.8004642168 -0.2407671912
H 3.7263828478 0.5270230338 3.7964456529
H 3.6503445296 1.6683262572 2.4447889520
H 1.8141057673 1.3807261493 0.8821503996
H 2.9299162845 0.1612339155 0.2237826454
H 1.1994264977 -1.5801390729 0.3324976296
H 0.6306464738 -0.1713565949 -0.5965512983
H -0.7130268026 -0.5929798865 3.3344369178
H 0.4050398184 -1.8257631924 2.7015415808
H 1.6060883864 -0.2753892167 4.1600772040
H 1.0317300571 1.1327285196 3.2295015624
H -2.1850067105 -1.0195990042 1.6304993953
H -1.1534993305 -2.2146080688 0.8227754652
H -1.2852955582 -0.9531758882 -1.2988329193
H -2.8768531717 -1.3048723043 -0.6586053007
H -2.9569782352 1.0593612310 0.3031844812
H -1.4063604033 1.3758213944 -0.4451993516
H -2.3147150186 0.8913011882 -2.6813449496
H -4.0144030612 0.5087772210 -4.2702138212
H -6.2073751134 -0.5415105978 -4.8053268743
H -7.1319588282 -0.7295399901 -0.6238314375
H -4.9498629812 0.3080516582 -0.0835073089
H -4.6880593859 2.8208516357 -0.4508148351
H -4.8759844906 5.2948282299 -0.5561003802
H -1.8418522130 5.4082026622 -3.5824152460
H -1.6403590825 2.9275545248 -3.4731492526
H 8.7515550672 -4.3315180616 -0.0779871668
H 3.9112686011 -1.6772768338 1.8298017520
