51
CONF43
C 2.6940939339 0.9439334059 -2.6180408629
C 2.3996939239 -0.5173771603 -2.2890439543
C 2.5063508904 -0.8881327147 -0.7858793711
C 2.2286614174 -2.3929418370 -0.6182778360
C 3.8899474193 -0.5510312400 -0.2232396133
C 1.4698086089 -0.0841195904 -0.0300786352
O 1.6479051487 0.8313321784 0.7259771476
O 0.1792792366 -0.5554068502 -0.3180533718
C -0.8918255830 0.0553750799 0.2419418665
C -1.3156434097 1.3239891693 0.1297468258
C -2.5380250188 1.4237455809 0.9442383944
O -3.2454386943 2.3880634362 1.1439738198
O -2.8179375612 0.2046033664 1.4892076289
C -1.7988579762 -0.7672011655 1.1013630999
C -1.0901467332 -1.2703160925 2.3638427088
C -2.0271438583 -2.1032808526 3.2402549488
C -2.6491094945 -3.2551195225 2.4491554126
C -3.3931606441 -2.7312727872 1.2195726798
C -2.4685473821 -1.9052648909 0.3240869988
C -0.7643023189 2.4560225701 -0.6144559657
C -0.3758440030 3.6136179653 0.0711115044
C 0.1491094171 4.7138598447 -0.5903500794
C 0.2772299579 4.6567645159 -1.9734585802
C -0.1114470716 3.5415378035 -2.7019845987
C -0.6313043047 2.4547404199 -2.0075696651
Cl -1.1466762642 1.0648740119 -2.9431514658
Cl 0.9445785531 6.0328474877 -2.8330620229
H 2.0720602679 1.6259415761 -2.0277325987
H 2.4849621284 1.1407145380 -3.6738396019
H 3.7410733297 1.1984942614 -2.4314779044
H 3.1057354738 -1.1696771309 -2.8173749952
H 1.3968019988 -0.7846656546 -2.6391459674
H 1.2892447596 -2.6836088594 -1.0936480782
H 2.1892116602 -2.6692179841 0.4401235700
H 3.0440605754 -2.9505363647 -1.0887342245
H 3.9740699553 -0.8850277444 0.8151922534
H 4.6494910315 -1.0687534433 -0.8167078474
H 4.0938091379 0.5209333623 -0.2536707488
H -0.6886106168 -0.4101120040 2.9106068405
H -0.2420903138 -1.8854438077 2.0369213802
H -1.4632922228 -2.4853104948 4.0980639767
H -2.8218008675 -1.4603466176 3.6386456160
H -3.3331270234 -3.8235553972 3.0888086512
H -1.8568592082 -3.9461253666 2.1286880752
H -4.2419083668 -2.1140469091 1.5393926177
H -3.8032112560 -3.5617533084 0.6348820568
H -3.0081207078 -1.4783718174 -0.5284482960
H -1.6668169451 -2.5409362486 -0.0717399792
H -0.4759507963 3.6372286394 1.1511487716
H 0.4548048831 5.5962187057 -0.0409591906
H -0.0147840873 3.5141142234 -3.7802752882
