40
CONF15
C 2.7239888030 -2.2275885765 -1.7603004281
O 3.0312454571 -1.7653499372 -0.4169516635
C 3.6243803215 -0.5654050813 -0.3346973714
O 3.8489611920 0.1559937601 -1.2804074512
C 4.0075790663 -0.2912520117 1.1100564045
S 4.3255037138 1.4535358431 1.4987857034
C 2.6991686272 2.1692803873 1.4261101216
C 1.5367048001 1.4425565445 1.1653830735
C 0.2741533086 2.0503955142 1.1218441257
C 0.2147358594 3.4238326793 1.3752503751
C 1.3396954310 4.1791170436 1.6410868801
C 2.5746757872 3.5451137240 1.6607570424
Cl 4.0033918076 4.5034004428 2.0039260722
F -0.9875956034 4.0414728457 1.3433278924
N -0.8968398520 1.3260957744 0.9206020545
C -1.0627962574 0.6511290363 -0.1552691007
N -2.1604034423 -0.1490460218 -0.3656389993
N -2.0600345049 -0.9436941708 -1.5210393367
C -1.0555086594 -0.6217694680 -2.3769455115
O -0.8840944731 -1.0624987646 -3.4982073248
S 0.0169395624 0.6101024908 -1.5857625303
C -3.3244923851 -1.5285047590 -1.9995433392
C -3.9935565370 -2.2932894051 -0.8664893918
C -4.1539437401 -1.3864953908 0.3510830178
C -2.8042899825 -0.8292096857 0.7797601036
H 3.6496620667 -2.3644323746 -2.3240188885
H 2.0803315201 -1.5067268687 -2.2678735018
H 2.2088208817 -3.1773164864 -1.6254480957
H 4.9688451067 -0.7903719555 1.2868867200
H 3.2880772661 -0.7391441775 1.8005879804
H 1.5716000414 0.3699724656 1.0183025171
H 1.2502640864 5.2440887890 1.8220222973
H -3.9719530940 -0.7164583469 -2.3588385362
H -3.0665163576 -2.1777171483 -2.8375012162
H -4.9666030622 -2.6495907364 -1.2171338812
H -3.3873065236 -3.1693234510 -0.6068784783
H -4.8334351661 -0.5583913971 0.1163322734
H -4.5791849551 -1.9396666619 1.1937092643
H -2.1410859382 -1.6318075747 1.1339597709
H -2.9090853524 -0.0810369950 1.5658763340
