39
CONF54
C -2.7475865962 0.7133945256 -3.5637262641
C -1.3176478986 0.1947349472 -3.6906495549
C -0.4183655739 0.6264055899 -2.5319056696
N -0.8754623216 0.0654654596 -1.2473406050
C -0.3469181509 -1.2604799150 -0.9028563105
C 1.0364953905 -1.1791157288 -0.2893856649
O 0.8925241648 -0.5067870718 0.9909915983
C 2.0659732411 -0.1599848534 1.5802285650
C 2.6819004440 -0.9952172278 2.5197365064
C 3.8507220283 -0.6337001109 3.1774011268
C 4.4125075190 0.6002732725 2.8769250072
C 3.8429464533 1.4718409431 1.9579436596
C 2.6730470305 1.0755945173 1.3229536900
Cl 1.9163543624 2.1540027070 0.1783121669
Cl 5.8886298049 1.0777143206 3.6919083758
Cl 1.9422214572 -2.5339786480 2.8827188224
C -1.5206163225 0.8776322792 -0.3832858934
O -1.6798193255 2.0849835503 -0.5133084437
N -2.0932707366 0.2288820034 0.7742681550
C -2.9826160786 -0.8319491766 0.8166034023
C -3.2894498249 -0.9935718022 2.1399015851
N -2.6121157014 -0.0673244861 2.9131099100
C -1.9163952595 0.6568043594 2.0625044754
H -3.2253650094 0.3371962555 -2.6526280940
H -2.7654080675 1.8077521051 -3.5276510052
H -3.3551572923 0.3900940203 -4.4141040090
H -0.8599367184 0.5721316301 -4.6128880921
H -1.3186270248 -0.8996047628 -3.7683477235
H 0.6095328568 0.2882631060 -2.6993650466
H -0.4040160926 1.7149075193 -2.4438124513
H -0.2879113213 -1.8547227181 -1.8197216129
H -1.0142329334 -1.7841901571 -0.2178780799
H 1.7331335200 -0.6151806323 -0.9204802395
H 1.4300200727 -2.1904293347 -0.1303267891
H 4.3053500214 -1.2976114319 3.9020597086
H 4.2908272468 2.4339062749 1.7426018504
H -3.3221677565 -1.3309323719 -0.0784183666
H -3.9658560355 -1.7151818458 2.5766882985
H -1.2532435821 1.4779832591 2.3012229803
