48
CONF22
C 3.9669485374 0.3500560121 -1.7398179330
C 4.3261780791 -0.7993697094 -0.8010994112
C 3.1645662577 -1.2905072680 0.0653338839
C 2.0236792650 -1.8048738813 -0.8185123089
O 2.1333116908 -2.8809908860 -1.4018486768
N 0.9545584289 -0.9795637348 -0.9299823510
C -0.2023810984 -1.2979431231 -1.6983011038
C -1.6150731960 -1.1879722683 -1.0224699716
N -2.0086796785 -0.2650300392 -2.1012672218
C -0.7251757327 -0.1716624768 -2.6293157642
O -0.2458953391 0.5582431052 -3.4632640744
C -2.8799047483 0.8390731545 -1.7529583455
C -2.4551612204 1.3137610015 -0.3121249633
S -1.8179555722 -0.2412464660 0.5394005617
C -1.3264876274 2.3393256638 -0.4276213813
C -3.6074528904 1.8823344085 0.5100399248
C -4.3533554542 0.4753077949 -1.8435933422
O -5.2115196729 1.2644815208 -2.1717989963
O -4.5917049094 -0.7980922893 -1.4948049204
O 2.7682544184 -0.1981965408 0.9059471030
C 1.9687301037 -0.4558838544 1.9953404788
C 1.4880239704 -1.7185373453 2.3450552649
C 0.6625430794 -1.8435374566 3.4634176968
C 0.3129148021 -0.7336314040 4.2248366597
C 0.8009471434 0.5228642831 3.8626695977
C 1.6258749866 0.6660241046 2.7551573629
H 3.5734842996 1.2080193472 -1.1869779324
H 4.8559078352 0.6784237704 -2.2854612796
H 3.2165263364 0.0455304600 -2.4768854589
H 4.6874256420 -1.6610341918 -1.3720258579
H 5.1316874978 -0.5029625310 -0.1205634580
H 3.5079376419 -2.1354511634 0.6743345438
H 0.9574564324 -0.1227282755 -0.3923387402
H -0.0469412258 -2.2528070953 -2.2080457912
H -2.1874743882 -2.1156747638 -0.9728276345
H -2.7155940667 1.6608947679 -2.4561966007
H -0.4921055269 1.9644004671 -1.0267350748
H -0.9463080081 2.5869386905 0.5671632005
H -1.7089517417 3.2538683027 -0.8948928801
H -4.4148125828 1.1578274658 0.6453985380
H -3.2444818265 2.1816127888 1.4971185007
H -4.0068568920 2.7723789053 0.0127352517
H -5.5498833369 -0.9625329299 -1.5517910744
H 1.7281805749 -2.6012080039 1.7644101876
H 0.2878142137 -2.8269946982 3.7302367890
H -0.3332149064 -0.8429283186 5.0894047401
H 0.5369323187 1.3998607521 4.4457346730
H 2.0074890810 1.6382328410 2.4597877854
