43
CONF38
C 0.3560806042 0.8161660509 2.3788352496
C -0.4807200953 1.6621435275 1.4205925410
C -0.3870235243 3.1472704334 1.7691529236
C -0.0388269023 1.4594563163 -0.0475279221
C -0.2003034025 0.0451635686 -0.5285024692
C 0.9104121565 -0.7699014013 -0.8107248612
C 0.6831669534 -2.1023368441 -1.1700284712
N -0.5242373522 -2.6420418012 -1.2784599633
C -1.5797784928 -1.8728008178 -1.0427861280
C -1.4728390316 -0.5352645017 -0.6520130958
C -2.7046290967 0.2842190769 -0.4059788008
O -2.9664844577 1.3103725365 -0.9947135716
O -3.4668770814 -0.2767090277 0.5386196719
C -4.7177633501 0.4088872828 0.8254606193
C -2.9384526407 -2.5337100540 -1.2252155867
F -2.8172450616 -3.6875837621 -1.9413414325
F -3.7483996181 -1.6885835571 -1.9621625127
C 1.8287474021 -3.0781431217 -1.4140610031
F 2.8450913863 -2.5140582912 -2.1032567808
F 2.3380085631 -3.5242363962 -0.2383771180
F 1.4306575057 -4.1569788609 -2.1087611193
C 2.2842617386 -0.2171780634 -0.7144398073
N 3.0499506971 -0.4178838766 0.2777794809
C 4.3068690882 0.3307689753 0.1583229535
C 4.5694736195 0.6867898788 -1.3141339640
S 2.8904385200 0.7986561310 -2.0669040344
H 0.0168114656 0.9601463563 3.4094048133
H 0.2871094947 -0.2516366026 2.1450958799
H 1.4115871186 1.1059801825 2.3212719483
H -1.5309183290 1.3560929564 1.5192553553
H -1.0126014330 3.7511367626 1.1037549826
H 0.6483128482 3.4958539768 1.6762813753
H -0.7119911111 3.3211826647 2.7997345311
H 1.0073057315 1.7643291957 -0.1334413578
H -0.6264823557 2.1214387269 -0.6911206892
H -5.1972187925 -0.1865363434 1.6001750766
H -4.5098370290 1.4198226907 1.1827694536
H -5.3323507169 0.4458607437 -0.0766489144
H -3.4500966365 -2.7591591389 -0.2838724995
H 4.2049238576 1.2380005841 0.7706080397
H 5.1337669813 -0.2571921037 0.5678311054
H 5.1244424897 -0.0985640509 -1.8342889165
H 5.0876582894 1.6407594954 -1.4261846906
