42
CONF5
C 1.8903429583 2.4263690469 -0.2100183758
C 2.4647292925 1.2840768066 0.3438747921
C 1.6568912059 0.2455089918 0.7963518017
C 0.2665622180 0.3383629789 0.7035355932
C -0.3030717793 1.4947948141 0.1597276944
C 0.5041743724 2.5329182004 -0.2949108979
C -0.6111877458 -0.8139419369 1.1457479898
C -1.3173579374 -0.6438024894 2.4752963055
C -1.8595830515 -1.7800120163 3.0858037428
C -2.5320134505 -1.6831452373 4.2984122161
C -2.6710883506 -0.4443221738 4.9232770780
C -2.1290285597 0.6892370404 4.3260232117
C -1.4559784827 0.5905987974 3.1086103450
C -1.5897590335 -1.1272013968 0.0077613861
O -2.7936337108 -1.1016670049 0.1261586415
C -0.9755063585 -1.4392440612 -1.3631595049
C 0.4991171456 -1.8425450295 -1.4257586997
O 1.0034292924 -2.7680885376 -0.8171409979
C 1.1766718971 -0.9499886023 -2.3877835284
C 2.5078263640 -0.9560946912 -2.7888349129
C 2.9075961336 -0.0021874217 -3.7194871925
C 1.9976974150 0.9322610041 -4.2346718687
C 0.6656803825 0.9358576047 -3.8321838582
C 0.2701816317 -0.0186332734 -2.9015845371
C -1.0742999357 -0.2327669762 -2.3260188040
O -2.0804455986 0.3959731996 -2.5732423876
H 2.5214471041 3.2307898844 -0.5744425834
H 3.5444507731 1.1965269927 0.4140605347
H 2.1056090744 -0.6531808696 1.2102060587
H -1.3841347576 1.5820426854 0.0861730981
H 0.0499637718 3.4205531288 -0.7238223071
H 0.0292787606 -1.7038165549 1.2176880955
H -1.7517532781 -2.7480511546 2.6030887110
H -2.9456316802 -2.5753089571 4.7585338001
H -3.1933510148 -0.3663414411 5.8716894808
H -2.2250541555 1.6575264016 4.8077004623
H -1.0308593941 1.4821897538 2.6603227457
H -1.5843501527 -2.2493790908 -1.7859360873
H 3.2075668826 -1.6794093587 -2.3835409511
H 3.9395133187 0.0237430915 -4.0541742092
H 2.3422303223 1.6630720153 -4.9590360265
H -0.0428705815 1.6567255192 -4.2262440602
