37
CONF20
C 4.5281373025 0.1247764854 1.7813812753
C 3.7606063010 -0.2432422267 0.5138874100
C 2.2536844551 -0.3328327987 0.7537732866
C 1.4922469397 -0.7150488862 -0.5113532305
C -0.0459824242 -0.8131017559 -0.3229331195
C -0.6692100137 -1.1988506908 -1.7041831465
N -2.1114979453 -1.2660818635 -1.6894657974
C -3.0166454883 -0.2809543508 -1.9113159586
N -4.2408646119 -0.7280699832 -1.7005531781
C -4.0234519552 -2.0221850028 -1.3295135088
N -2.7519687231 -2.3966589276 -1.3037708466
C -0.2959219317 -1.8927762688 0.6351722316
N -0.4303314966 -2.7505571903 1.3970328805
C -0.6791511785 0.4914544009 0.1576179780
C -1.6922458857 0.4958234782 1.1150565545
C -2.3318547419 1.6762767852 1.4772990461
C -1.9508912756 2.8655306216 0.8713931616
Cl -2.7460722541 4.3582114589 1.3185194863
C -0.9447182101 2.8902009523 -0.0881480351
C -0.3183633990 1.7014030906 -0.4402981960
H 4.1993833417 1.0938985284 2.1712196804
H 5.6036675717 0.1860687170 1.5922504679
H 4.3667001915 -0.6213496176 2.5662695119
H 3.9613239249 0.5009246059 -0.2686203060
H 4.1245050389 -1.2041577617 0.1273025853
H 1.8844773585 0.6295974291 1.1303106304
H 2.0499967462 -1.0737384068 1.5370635715
H 1.8472621720 -1.6857604305 -0.8787674683
H 1.6958179869 0.0114744163 -1.3072765559
H -0.3685964533 -0.4348358799 -2.4278518490
H -0.2834417694 -2.1699398529 -2.0262570129
H -2.7357459722 0.7190663548 -2.2155871830
H -4.8204374535 -2.7098640892 -1.0797037141
H -1.9965405873 -0.4343336819 1.5845456615
H -3.1219845625 1.6689216257 2.2186247935
H -0.6555289505 3.8263902763 -0.5511948849
H 0.4636371645 1.7343211484 -1.1919269253
