94
CONF24
C 9.0725522817 -1.2212251316 -4.7353697535
C 8.0509690456 -1.6211546146 -3.6886019263
C 6.9275830842 -2.4922733163 -4.2594281681
C 5.9098120374 -2.8484670740 -3.2274903066
C 4.6710887780 -2.3205421386 -3.1747596210
C 3.7224821860 -2.5992535937 -2.1341830760
C 2.4974364493 -2.0178626313 -2.0358043225
C 1.5846346421 -2.2887783711 -0.9695696194
C 0.3701703636 -1.6985774063 -0.8127588221
C -0.4873270766 -1.9644395578 0.3076210025
C -1.6443457111 -1.3244256969 0.5618780455
C -2.3938790344 -1.4989131339 1.8480391114
C -1.9485785914 -0.4808283710 2.8996875065
C -2.1341617177 0.9717886702 2.4472900801
C -2.9616712306 1.8076565578 3.4575812129
C -2.9237990173 3.2934741869 3.0898978255
C -1.4834449592 3.7510220725 2.8796411274
C -0.8064215901 2.8822225910 1.8194326201
O -0.8233733004 1.5183704192 2.2727335653
C 0.6753227949 3.2102147663 1.6187826268
C 1.3671077189 2.3219147595 0.5895335270
C 2.8759333913 2.5653131692 0.5519682763
C 3.5409069039 1.7876844472 -0.5505019717
C 4.8374132609 2.2169508587 -1.1133139384
O 3.5971764560 2.4219293340 -1.8415116361
C 5.7416747942 1.2402447387 -1.7221085300
C 7.0756573154 1.2842225240 -1.6081967971
C 7.9593073822 0.2462580453 -2.1665882482
O 9.0855985657 0.0266740094 -1.7508330922
O 7.3758607296 -0.4305826083 -3.1715845549
O 0.7682460608 2.6225690974 -0.6985989863
O -1.5462641894 3.0344998035 0.6225311015
O -3.5950359542 4.0827710737 4.0823785525
C -4.3596989721 1.2190385824 3.4378560893
O -4.7495618579 0.4123247491 4.2832868715
O -5.0621152243 1.5771820900 2.3858883301
O -3.8160861572 -1.3003768123 1.6909033028
C -4.5627109351 -2.4427504476 1.3313876375
C -5.9932819922 -2.2416938780 1.8414171838
C -6.7638916299 -1.1539214265 1.0245936861
C -5.9891241136 -0.7340742976 -0.2236956515
C -5.4167328318 -1.9680684122 -0.9249565756
O -4.5283464336 -2.7198316988 -0.0540905216
C -4.6349933758 -1.6245398825 -2.1765942738
O -6.8245821576 0.0212930421 -1.1065269911
N -7.0738120589 0.0373726127 1.8425808943
O -6.0197117083 -2.0319684324 3.2419845724
H 9.8428862150 -0.5792853373 -4.3020042834
H 8.5848214669 -0.6897289741 -5.5585157873
H 9.5536492216 -2.1181141892 -5.1371923469
H 8.5345486665 -2.1228373729 -2.8432663317
H 7.4010326867 -3.3952899376 -4.6656543520
H 6.4583209746 -1.9560868435 -5.0926871434
H 6.2240285337 -3.5377413250 -2.4424817396
H 4.3637720586 -1.6183781392 -3.9513496106
H 4.0254067203 -3.3120315127 -1.3661431273
H 2.1898711555 -1.2976295916 -2.7951499892
H 1.9066528341 -3.0140649169 -0.2209218592
H 0.0329480183 -0.9635674329 -1.5446086484
H -0.1359862287 -2.7126042619 1.0208509748
H -2.0147065156 -0.5662155295 -0.1266079103
H -2.2147668363 -2.5079028072 2.2482101233
H -2.5125137603 -0.6757832528 3.8172000743
H -0.8891670876 -0.6442466842 3.1172486805
H -2.6627997143 1.0139959617 1.4871378590
H -2.5365034347 1.6676830961 4.4598586807
H -3.4925302358 3.4501003142 2.1705589093
H -0.9235455567 3.6575154011 3.8182924020
H -1.4693854234 4.7990961970 2.5650310440
H 0.7645624422 4.2589000677 1.3116307388
H 1.1874630454 3.0975230460 2.5796336564
H 1.1780053283 1.2658729051 0.8276614908
H 3.3022311188 2.2511510520 1.5133111396
H 3.0847196100 3.6333134741 0.4190145170
H 3.3068253731 0.7198382478 -0.6000223605
H 5.2816859443 3.1288285581 -0.7131331348
H 5.2663436562 0.4357253313 -2.2798671345
H 7.5725137378 2.0541598589 -1.0243570185
H 0.9977658425 1.9178938122 -1.3185051019
H -0.9480988915 2.7851482949 -0.1085967412
H -3.1131422982 3.9816734725 4.9144325312
H -5.9034428694 0.9274374041 2.2346516380
H -4.1253041309 -3.3309156563 1.8081852726
H -6.5033765461 -3.1960328104 1.6749490775
H -7.7002246765 -1.6171937145 0.6750191514
H -5.1708596754 -0.0595891232 0.0509472708
H -6.2605305850 -2.6311906108 -1.1837493263
H -5.2914904413 -1.1713393967 -2.9233504521
H -3.8298428207 -0.9213449771 -1.9394999184
H -4.1964639846 -2.5314062355 -2.6022753102
H -7.5500948811 -0.5507751022 -1.3949939217
H -7.7030076790 0.6322067648 1.3081718708
H -7.5816951812 -0.2487688463 2.6758593216
H -5.4945578130 -1.2364429564 3.4552495587
