30
CONF3
C -5.0036239059 -0.6448462853 -0.7728755572
O -3.6172129746 -0.3048117735 -1.0258980305
C -2.8980121356 0.0620630590 0.0530006485
O -3.3671705758 0.1343354010 1.1726997316
C -1.4549784542 0.3146734181 -0.3085781293
C -0.8029966124 1.3244540523 0.6382081663
C 0.6679764280 1.5333147151 0.2795142110
C 1.4309979386 0.2080100247 0.3265231443
C 0.7820617239 -0.8224717738 -0.6220832906
C -0.6921931905 -1.0269235214 -0.2758975810
C 2.8789409026 0.3812304897 -0.0612627505
O 3.3099539189 1.2291026273 -0.8192085836
O 3.6543451063 -0.5615889372 0.5093241475
C 5.0562477560 -0.5331555544 0.1414958392
H -5.0650981740 -1.4856344709 -0.0777072819
H -5.4157660547 -0.9185096359 -1.7432912371
H -5.5334435964 0.2166397757 -0.3594898847
H -1.4250709880 0.6971703662 -1.3365514978
H -0.8876413718 0.9554892062 1.6674144551
H -1.3388527043 2.2789267524 0.5917138396
H 1.1234553868 2.2511985131 0.9704596032
H 0.7489070123 1.9581655334 -0.7282768660
H 1.3999993554 -0.2012425155 1.3441646956
H 0.8719921844 -0.4599605166 -1.6547139742
H 1.3132608526 -1.7779970064 -0.5582593554
H -1.1436150573 -1.7328805284 -0.9809366464
H -0.7775286764 -1.4604006759 0.7294570383
H 5.5037653961 0.4190782582 0.4360575706
H 5.1665415083 -0.6763385921 -0.9361184539
H 5.5147576048 -1.3570902091 0.6867746346
