46
CONF28
C 2.9229001145 3.8036235170 3.6082004433
C 4.0427301236 3.5159977135 2.6316406182
O 4.2360085860 2.0785980275 2.4608401311
C 3.4409210571 1.4143685573 1.6197808158
N 3.6695974317 0.1039591196 1.5881683688
C 2.8791031647 -0.5739303381 0.7307228251
N 1.9283799072 -0.0065303270 -0.0500691420
C 1.8083476134 1.3090802152 0.0939815919
N 2.5299953363 2.0911395708 0.9069621685
N 0.8512498421 1.9797244013 -0.6487495294
C -0.1084744648 1.5072088018 -1.5434394093
O -0.9230591246 2.2707457425 -2.0392946325
N -0.0437896492 0.1564948602 -1.8125807952
S -1.2726359298 -0.6526828298 -2.6567868330
O -1.3805908954 -0.0770772631 -3.9986709088
O -0.9322422203 -2.0724795416 -2.4894197604
C -2.8073713186 -0.3198397254 -1.7808881173
C -3.6958971854 0.5783440395 -2.3597449339
C -4.9413454629 0.7787063090 -1.7724789241
C -5.2957600093 0.0651027274 -0.6329354708
C -4.4062877974 -0.8446789273 -0.0689478404
C -3.1428078973 -1.0391279823 -0.6270237086
C -2.1809944066 -1.9322493347 0.0905119664
O -1.1047332977 -1.5640827780 0.5150812743
O -2.6908049342 -3.1553399361 0.2612096645
C -1.8533819969 -4.0794808121 1.0085579547
N 3.0402498925 -1.8992472498 0.6401706360
C 2.2676328564 -2.7456250338 -0.2591722816
H 3.1152314485 3.3182210464 4.5692090671
H 2.8622185029 4.8839011453 3.7738116733
H 1.9612614213 3.4596937830 3.2193857418
H 3.8674122811 3.9741844812 1.6559050977
H 5.0049678849 3.8542332600 3.0217035237
H 0.7970022538 2.9768383193 -0.4849787640
H 0.5761529938 -0.4086472260 -1.2048436587
H -3.4166451973 1.1045096580 -3.2641834180
H -5.6348039056 1.4843251671 -2.2167982337
H -6.2706831072 0.2107946502 -0.1800427730
H -4.6821867771 -1.4007386600 0.8205728073
H -1.6801647166 -3.6933782774 2.0154207414
H -0.9013578363 -4.2162303163 0.4907214512
H -2.4151413655 -5.0114059153 1.0405548668
H 3.7607330371 -2.3094024363 1.2130554713
H 1.1953948520 -2.6618415281 -0.0527208824
H 2.4436633434 -2.4769036643 -1.3069903978
H 2.5800052503 -3.7788754016 -0.1024657997
