43
CONF5
C -3.3296567199 3.8880143038 0.6616981269
N -3.2234669466 2.7052424418 -0.1966062625
C -2.6952020380 1.4847093064 0.0557270969
C -2.8466463293 0.7039552475 -1.0973027473
C -3.4882670237 1.5875556865 -1.9868802295
N -3.7037895156 2.7831616767 -1.4481121949
Cl -3.9438609591 1.3220001091 -3.6251331909
C -2.3473442590 -0.6617978406 -1.3105514396
O -1.3995523720 -1.1386279961 -0.7151968291
O -3.0532808971 -1.3058155728 -2.2470601906
C -2.5909647488 -2.6452096973 -2.5623156582
S -2.0750170347 0.9688029726 1.6527328122
O -2.3015965004 2.0588638475 2.5981401027
O -2.5867421993 -0.3718846708 1.9353697547
N -0.4173172712 0.7610318844 1.4268250979
C 0.3451397633 1.7597265976 0.8451725635
O -0.0631644165 2.8982203528 0.6603983002
N 1.6314799956 1.3936956832 0.4860753855
C 2.2762142842 0.1590308049 0.5128369763
N 3.5327647713 0.1885683913 0.0667912918
C 4.1694707608 -0.9874589283 0.0750521212
C 3.5826203849 -2.1735781148 0.5113054578
C 2.2690843936 -2.0655175094 0.9500028489
N 1.6039362019 -0.9019604314 0.9589373519
O 1.6582328565 -3.1732972884 1.3793263189
C 0.2885582334 -3.0552574450 1.8367443399
O 5.4354407378 -1.0525903442 -0.3531781314
C 6.0557215084 0.1732069131 -0.8087130558
H -3.6981266643 4.6942726276 0.0290978963
H -4.0286313016 3.6974959259 1.4777674734
H -2.3468208140 4.1330152413 1.0642713074
H -1.5587344592 -2.6101589630 -2.9176599208
H -2.6596993278 -3.2808837936 -1.6766801997
H -3.2590745654 -2.9992357441 -3.3456199523
H -0.0652663667 -0.2063726400 1.3298516112
H 2.1766443400 2.1533069711 0.0993220239
H 4.1141097173 -3.1154755138 0.5102076082
H 0.2282063405 -2.3776453188 2.6930225908
H -0.3559835607 -2.7005912226 1.0282778204
H 0.0065208991 -4.0645676212 2.1339618757
H 5.5124460461 0.5820335262 -1.6639760792
H 6.0871539299 0.9090383559 -0.0017316335
H 7.0644620259 -0.1170218142 -1.1003938229
