28
CONF5
C 0.1384566885 1.6871878224 1.1120833879
N -1.1766300812 1.1000656231 0.8734284543
C -1.5090763276 -0.2251077898 1.3084258933
N -1.1060153258 -1.2574334077 0.3029396349
C -0.4372292851 -0.9923546096 -0.9477935833
N 1.0222064509 -1.0061458980 -0.7817667317
C 1.6548570413 -0.1488577965 0.2192710941
N 1.1628937221 1.2191126134 0.1851351570
N 1.5685189922 2.0214721357 -0.8713484110
O 2.3140888306 1.4945333937 -1.6906965867
O 1.1809158814 3.1798663995 -0.8956346942
N 1.7941542050 -1.5565947886 -1.7815573768
O 1.2058529858 -2.0385574155 -2.7465046082
O 3.0100649439 -1.5596948617 -1.6240856485
N -1.1367093376 -2.5527426919 0.7492683972
O -0.6627101931 -3.4213859093 0.0225289775
O -1.6568421808 -2.7391155435 1.8479961971
N -2.0916589044 1.7698415690 0.0528057484
O -1.8227104882 2.9166424510 -0.2617462452
O -3.0931625557 1.1459817983 -0.2716900160
H 0.4405483595 1.3918329375 2.1205474338
H 0.0724158200 2.7716177434 1.0549299630
H -2.5812005191 -0.3059326575 1.4934466240
H -0.9674264585 -0.4135322782 2.2408848365
H -0.7785159844 -0.0212762653 -1.3176828832
H -0.7086616037 -1.7504781726 -1.6797488115
H 1.4307458593 -0.5270216632 1.2214098559
H 2.7328290627 -0.1819226216 0.0651539200
