41
CONF14
O 8.7090698406 -0.6301499900 0.2774246854
N 8.1339985252 -0.1833885531 -0.7194593280
O 8.7312863506 0.1998597698 -1.7295371294
C 6.6850601640 -0.1046429311 -0.7033468110
C 5.9908282244 -0.5353056865 0.4322939667
C 4.6134920795 -0.4632663697 0.4504860642
C 3.9145897365 0.0403563419 -0.6676305463
C 4.6386801403 0.4640232861 -1.7980003799
C 6.0179475582 0.3962754862 -1.8225533521
N 2.5255919481 0.1533046245 -0.7675516223
N 1.8929732953 -0.1902243225 0.2908818721
C 0.5220094770 -0.1131693184 0.2323915246
C -0.2376561359 0.2984427447 -0.8894117625
C -1.6061475677 0.3302247131 -0.8386337657
C -2.3179345357 -0.0468133485 0.3434404586
C -1.5446008319 -0.4547672487 1.4681919898
C -0.1731552348 -0.4856544472 1.4023722147
N -3.6719066134 -0.0164377906 0.3834035055
C -4.4180457770 -0.4632467934 1.5619427774
C -4.5679321642 0.6174019269 2.6213722151
O -5.3466691369 1.6832674017 2.0648705189
C -4.4778734074 0.3923729076 -0.7763076727
C -4.6965164470 -0.7514335386 -1.7637376645
H 6.5365520346 -0.9217687481 1.2841367186
H 4.0640120118 -0.7965470936 1.3218884024
H 4.0916018661 0.8472836557 -2.6529897617
H 6.5771293732 0.7227609262 -2.6900596833
H 0.2705614728 0.5859612163 -1.8023873303
H -2.1468506182 0.6384262066 -1.7237910815
H -2.0238836133 -0.7418515461 2.3943965499
H 0.4039687576 -0.7997740178 2.2669722327
H -5.4117771869 -0.7733441420 1.2241123791
H -3.9444446700 -1.3441126045 2.0060720488
H -3.5811811812 0.9838385270 2.9360798495
H -5.0692007163 0.1742500386 3.4943172406
H -5.3672311455 2.4011637517 2.7090426265
H -5.4359020790 0.7427339241 -0.3871786940
H -4.0081332320 1.2519098204 -1.2628130992
H -5.2123009846 -1.5854383035 -1.2779172339
H -3.7469391006 -1.1181901672 -2.1638871807
H -5.3130702013 -0.4043311015 -2.5982557421
