40
CONF70
C 5.0492975069 0.4563502997 2.2372589117
C 4.0303310158 -0.0853271197 1.2644321029
O 2.9240554487 0.8694884318 1.2208900893
P 1.7181452076 0.6515547456 0.1958886451
S 2.1594974350 0.3246429527 -1.6598601159
O 0.8281946423 1.9106204448 0.5861321003
C 0.1901890174 2.7696431864 -0.4105465946
C 1.0826095072 3.9436967816 -0.7380699010
O 0.9919329004 -0.6154035321 0.9807666857
C -0.1765926858 -1.1794202555 0.5575931263
C -0.5027626288 -2.4306512539 1.0727842777
C -1.7052327261 -2.9713000149 0.6416238492
N -2.4955073268 -2.3186461407 -0.2362536248
C -2.0793680749 -1.1271930604 -0.6654870005
N -0.9400527913 -0.5160509943 -0.2898529526
C -2.9478416893 -0.3862887847 -1.6523331975
C -3.4785337631 0.9106515210 -1.0282903871
C -2.1761951042 -0.1030982682 -2.9463161230
C -2.1883643731 -4.3056504994 1.1149792705
H 5.4212757517 1.4292176446 1.9052934671
H 5.8937940237 -0.2366798505 2.2973850692
H 4.6162821774 0.5644713571 3.2351816235
H 3.6375544707 -1.0557734112 1.5878137121
H 4.4424949586 -0.1836455250 0.2545330996
H -0.0453778540 2.1718087419 -1.2954239812
H -0.7419909980 3.0843591741 0.0646778266
H 0.5612681417 4.6092286292 -1.4338199985
H 2.0079269738 3.6047806633 -1.2122540210
H 1.3296695977 4.5083421040 0.1650693315
H 0.1527831941 -2.9415982246 1.7669877786
H -3.7934171620 -1.0451648458 -1.8737704627
H -2.6502214992 1.5815953738 -0.7816296554
H -4.0431788317 0.7088573396 -0.1126199267
H -4.1395364561 1.4224508230 -1.7347707478
H -1.3130778828 0.5394322430 -2.7472956419
H -1.8117105664 -1.0293171600 -3.4012514518
H -2.8275616910 0.4016866527 -3.6666869504
H -1.4931593613 -4.7582381831 1.8243450006
H -3.1686491295 -4.1968564533 1.5895778280
H -2.3189705923 -4.9765755114 0.2600239270
