39
CONF146
C 3.2798686814 1.6255059334 -0.9057700019
C 2.6797296099 0.6441421244 -1.9120708015
C 2.3149541609 -0.7183377801 -1.3114586044
C 1.3440656324 -0.6351228928 -0.1562518790
C 0.7848699608 -1.9548214107 0.3446073207
O -0.4874464698 -1.5764004845 0.9084594311
C -0.8661075050 -0.3212901858 0.3434816759
C -2.2124163314 -0.4878429833 -0.3868161330
N -2.1195729639 -1.4864382411 -1.4340252299
C -1.6401412817 -1.3367026376 -2.6855076567
N -1.6256157776 -2.5051653094 -3.3154907960
C -2.1117980602 -3.3594888667 -2.3698420342
N -2.4232129016 -2.7908820727 -1.2125508247
O 0.1291181086 0.0210863244 -0.5950430684
C -0.9861058140 0.7235062733 1.4583886138
C -1.0930237115 2.0993418323 1.2232314611
Cl -1.1071451283 2.7772535497 -0.4016888677
C -1.1943453680 3.0214582317 2.2605336728
C -1.2025767375 2.5506467792 3.5655613249
Cl -1.3307283702 3.7070848198 4.8794281812
C -1.1139759470 1.1957802583 3.8503755534
C -1.0080399271 0.3038540210 2.7911370271
H 2.5498422946 1.9180122447 -0.1437895995
H 4.1429630567 1.1856360896 -0.3931265435
H 3.6147409833 2.5384412045 -1.4076397304
H 3.3926774344 0.4745428984 -2.7272269053
H 1.7855304848 1.0852406879 -2.3681383345
H 3.2209707270 -1.2164086281 -0.9420438927
H 1.8820101836 -1.3624741287 -2.0871297779
H 1.7693780708 -0.0666324023 0.6842641132
H 1.3892352335 -2.4167412231 1.1290664102
H 0.6292728851 -2.6593293371 -0.4845046076
H -2.9692883337 -0.8046487375 0.3336485332
H -2.5167298615 0.4612334400 -0.8332520825
H -1.3329614495 -0.3787198837 -3.0832558690
H -2.2486309850 -4.4205508613 -2.5371961711
H -1.2659092608 4.0812255542 2.0490618705
H -1.1243089193 0.8400577568 4.8738026934
H -0.9291461970 -0.7560511685 2.9987714284
