47
CONF109
C -4.3510783757 2.5229865268 0.7505599686
C -3.5872054726 1.2493715672 1.0347049938
C -4.3250177281 -0.0606474221 1.1856840204
C -3.5538325392 0.2263640360 -0.1031212679
C -2.3376613545 -0.5548829948 -0.3704148405
O -1.7207831356 -1.2463538071 0.4108467089
O -1.9505285772 -0.3858725289 -1.6737901270
C -0.7015858254 -1.0448498636 -2.0174952269
C -0.7175893378 -1.1663801606 -3.4747677855
N -0.6940171852 -1.2716975576 -4.6241820739
C 0.4963961295 -0.2554175902 -1.5402107869
C 1.3829868421 -0.8345914851 -0.6355310940
C 2.4705974845 -0.1076540700 -0.1725546958
C 2.6488709286 1.2008913223 -0.6209109429
C 1.7805424522 1.7869877625 -1.5247029908
C 0.6972952636 1.0500302705 -1.9888414103
F 3.6988582824 1.9043476316 -0.1537798575
O 3.2952984035 -0.6505345332 0.7840892767
C 4.6243240659 -0.8871047622 0.4573692328
C 5.4773031367 -1.1221155966 1.5324413985
C 6.8152543752 -1.4064998592 1.2845857491
C 7.2999619037 -1.4514468281 -0.0223458890
C 6.4308879206 -1.2150492732 -1.0837431336
C 5.0850440951 -0.9343507395 -0.8546592498
C -5.7849209085 -0.1549452461 1.1236814186
C -6.5356241362 -0.9658166475 1.8701086127
Cl -5.8998637526 -2.0679230063 3.0599448884
Cl -8.2746434310 -1.0107449079 1.7334178688
C -2.3611088868 1.4567269486 1.8941257819
H -3.6764615908 3.2654711353 0.3120558239
H -4.7473008056 2.9345477756 1.6853929776
H -5.1825288714 2.3738705655 0.0588029464
H -3.8263957960 -0.7755554082 1.8326466227
H -4.1285668239 0.4973786984 -0.9822649133
H -0.6868407995 -2.0523965968 -1.5867522334
H 1.2365620004 -1.8465698246 -0.2726031386
H 1.9567184596 2.8064233640 -1.8500369318
H 0.0077095052 1.4982634486 -2.6971331747
H 5.0853002983 -1.0806625712 2.5431782820
H 7.4828906323 -1.5901185407 2.1205636706
H 8.3456445865 -1.6703288638 -0.2105512572
H 6.7952197638 -1.2520250347 -2.1056185948
H 4.4099771989 -0.7606396824 -1.6859515420
H -6.3152546358 0.4769444833 0.4178827090
H -1.6530806788 2.1228945568 1.3882306589
H -1.8536539535 0.5190451079 2.1256976972
H -2.6580988360 1.9306303229 2.8355819633
