57
CONF7
C 1.7281754238 -0.6220250166 0.6903015771
C 2.6276594054 -0.7992699070 1.9173512412
C 4.0566517419 -0.8346187704 1.3502279537
O 4.8908559479 0.0301243117 2.1382813271
C 3.9552641668 -0.3690826515 -0.1615704065
C 4.1257158600 -1.5671634945 -1.0849309050
O 5.0282487503 0.5131303769 -0.5086487592
C 2.5432203499 0.2968085081 -0.2402603444
C 2.6461137762 1.7334145911 0.3060333067
C 1.8569769338 0.3104744906 -1.6070527856
C 0.3958842491 0.7700095641 -1.4830794469
C -0.4134290790 -0.0691381340 -0.4755522899
C 0.2877441061 -0.1650342590 0.9013799435
C -0.4697077972 -1.1277468287 1.8173364763
C -1.9345970961 -0.7319022918 1.9559715832
C -2.6280532367 -0.6251416370 0.5981035534
C -4.1193481754 -0.2967801059 0.7985321157
C -4.7400831396 -0.0154043020 -0.5194475141
C -4.0533363810 0.2389043279 -1.6913716861
C -2.5608872645 0.2361003637 -1.7738024978
C -1.9075475972 0.3624115720 -0.3704441339
C -2.0561697958 1.8128605272 0.1127648366
C -5.0610306160 0.4723238995 -2.6501854674
N -6.2853880282 0.3701050698 -2.1176596831
N -6.0597318188 0.0732089563 -0.8172620340
H 1.6616132959 -1.5986089555 0.1846309673
H 2.5363695063 0.0614740153 2.5905377929
H 2.3959545420 -1.6964445848 2.4973778614
H 4.4725565941 -1.8501751401 1.3811805509
H 5.8102536946 -0.1729731647 1.9223762740
H 4.0986460002 -1.2540202860 -2.1324630794
H 5.0953596892 -2.0357905564 -0.8889984751
H 3.3475692253 -2.3185492316 -0.9266825363
H 5.1040297307 1.1623252201 0.2043652717
H 3.1698798679 2.3686229781 -0.4156325423
H 3.1905633374 1.7785101862 1.2536219911
H 1.6617010402 2.1726069733 0.4758422542
H 2.3958814380 0.9608322160 -2.3087270349
H 1.8643663078 -0.7009940665 -2.0310585707
H 0.3672500977 1.8274749066 -1.2005556950
H -0.0707019425 0.7043704875 -2.4714051201
H -0.4308058246 -1.1015500042 -0.8682179836
H 0.2915365328 0.8243884144 1.3805452409
H 0.0056922231 -1.1590434475 2.8048683778
H -0.4012743382 -2.1428817516 1.3973632266
H -2.0091015345 0.2299918443 2.4808236667
H -2.4699631700 -1.4642497239 2.5739809522
H -2.5744950045 -1.6141445025 0.1149501975
H -4.6138936742 -1.1371790604 1.3009767955
H -4.2251476983 0.5707843593 1.4658751708
H -2.2246933259 1.0563738297 -2.4178052516
H -2.2088868784 -0.6940431770 -2.2438598687
H -1.5341332887 2.5000266788 -0.5587545602
H -3.1093399974 2.1103018912 0.1220729412
H -1.6572165401 1.9598877564 1.1200704220
H -4.9524328970 0.7092556864 -3.7016283375
H -6.8403368004 -0.0531491417 -0.1906868546
