56
CONF35
C 2.5598236224 0.5242687442 1.2350687328
C 2.9130870477 1.8089914026 0.5012425511
N 3.3442912915 1.5215475675 -0.8713386622
C 2.2824962714 0.7907549916 -1.5741706982
C 1.9337672232 -0.4895727145 -0.8320802954
N 1.4911599720 -0.1782794273 0.5259677715
C 1.0247953904 -1.3697657388 1.2352066023
C 0.2112273743 -1.0326742762 2.4877972869
C -0.8263969917 0.0625077417 2.2281967212
N -1.6511604563 -0.2366926701 1.0504560376
C -1.8029980188 0.7268687785 0.0388958832
C -1.7144555780 2.0993238528 0.3085535081
C -1.8069364820 3.0337500245 -0.7191410270
C -2.0368972071 2.6265837995 -2.0297493682
C -2.1831143281 1.2692865895 -2.3057013357
C -2.0493150497 0.3319525596 -1.2857522812
S -2.1012783833 -1.4042308712 -1.6788370010
C -2.8014478748 -2.0074621578 -0.1635881529
C -2.4516030949 -1.3821302400 1.0471033550
C -2.9181761706 -1.9484563967 2.2408648061
C -3.6916732476 -3.1041298227 2.2119447894
C -4.0492467951 -3.7080111358 1.0077695967
C -3.6118540579 -3.1394726848 -0.1815658912
C -4.1539864138 -3.7366853404 3.4878553501
F -3.8491537210 -3.0071131139 4.5843255827
F -3.6000832570 -4.9686941966 3.6722368691
F -5.5009641141 -3.9278155439 3.5019647750
C 3.7215078933 2.7515808334 -1.5787817729
C 4.5928678237 2.4328826285 -2.7861590344
O 5.7237207002 1.6425579881 -2.3978855210
H 3.4653504244 -0.1095258347 1.3285291386
H 2.2265884340 0.7796623779 2.2469328454
H 3.7280812033 2.3188094761 1.0274582404
H 2.0298827871 2.4798891162 0.5094086358
H 2.6187523509 0.5380713325 -2.5851011765
H 1.3706103076 1.4160575321 -1.6657179284
H 1.1184301683 -0.9975611110 -1.3613552998
H 2.8127184344 -1.1662940401 -0.8330102848
H 1.8606849715 -2.0412801575 1.5129788786
H 0.3846465337 -1.9288803229 0.5415685073
H -0.2603066745 -1.9545868072 2.8453067464
H 0.8558722994 -0.6830139930 3.3021081919
H -1.4373195245 0.2451195906 3.1223294273
H -0.2912678313 0.9855455795 2.0092192855
H -1.5716285271 2.4422438242 1.3266853917
H -1.7130488432 4.0889787477 -0.4832370679
H -2.1140913152 3.3535893511 -2.8310273302
H -2.3751145070 0.9304536615 -3.3193495315
H -2.6745193136 -1.4895790824 3.1896282484
H -4.6567163414 -4.6063883668 0.9938130012
H -3.8746326721 -3.5941580886 -1.1313231093
H 4.3003900138 3.3734431641 -0.8851998740
H 2.8378843386 3.3361511037 -1.8986121115
H 4.0140674965 1.9150318794 -3.5654330766
H 4.9729890108 3.3642150051 -3.2182204285
H 5.3736931167 1.0223349333 -1.7371787016
