48
CONF19
C -3.3079157984 2.9702884461 -0.5926497263
O -4.1287503135 1.8982966240 -1.0793476888
C -3.7790901107 0.6327471901 -0.7298538044
C -4.6208115305 -0.3788595360 -1.2565328673
C -4.3743234214 -1.6931947633 -0.9713505202
C -3.2773917101 -2.0717535876 -0.1557284856
N -3.0938780003 -3.3986347394 0.0894410602
C -2.0758024906 -3.7379864230 0.8589636260
C -1.1770094062 -2.8154384768 1.4239825199
C -1.3289503986 -1.4671523162 1.1836496223
C -0.3342495125 -0.4663370301 1.7250707575
O 0.3509365619 -1.0582519898 2.8348688273
C 0.6105621411 -0.0303313882 0.5829217300
C 1.4967745371 -1.1649945915 0.0236685600
C 2.7962653372 -0.5233706401 -0.4914239252
C 3.6131160541 -0.0739452931 0.7251600458
C 2.6793634217 0.7705117003 1.6333457715
N 1.4334156582 1.1571586944 0.9261619339
C 1.8367242550 1.7746657432 -0.3549458574
C 2.4127632496 0.7112373543 -1.3478093264
C 3.5465209986 1.2674426048 -2.1441200674
C 3.5545987061 1.3949933724 -3.4717246449
C -2.4228141524 -1.0514025822 0.3692213536
C -2.7022491941 0.3066718112 0.0699012639
H -3.3170854486 3.0028668616 0.5029338382
H -2.2772763548 2.8660793624 -0.9520713717
H -3.7480779090 3.8836556467 -0.9926780103
H -5.4582922724 -0.0843181394 -1.8808942606
H -5.0144701571 -2.4768318782 -1.3641276932
H -1.9404490415 -4.8017257873 1.0515554205
H -0.3648368732 -3.1737904008 2.0446675575
H -0.8690779148 0.4284657448 2.0703743132
H 0.5629293160 -0.3521909525 3.4553913123
H -0.0582957787 0.3098343629 -0.2173986242
H 0.9730437141 -1.6947928656 -0.7791556006
H 1.7340676256 -1.8950343326 0.8071034356
H 3.3620940019 -1.2368868222 -1.0990862707
H 4.4878044427 0.5051781939 0.4105816806
H 3.9834694275 -0.9509997922 1.2670225184
H 3.1751756186 1.6934574209 1.9540153897
H 2.4149076593 0.2141237219 2.5337006016
H 2.5942875281 2.5372816057 -0.1352067382
H 0.9750478553 2.2805510439 -0.8062966400
H 1.6244600717 0.4033717510 -2.0472656277
H 4.4141147232 1.6063208871 -1.5753037925
H 4.4054437520 1.8196852812 -3.9964910256
H 2.7053959039 1.0769992570 -4.0731281248
H -2.0721862741 1.0863391595 0.4753274405
