56
CONF10
C -3.0580419059 1.4975044758 -1.0070157975
C -2.6073360294 0.1552172111 -0.3744902111
C -3.2659016260 -1.0016539509 -1.1518367379
C -4.7698376982 -1.1013188733 -0.9147243314
C -5.0796312623 -1.2139042279 0.5583671779
O -6.0924917763 -1.7896633855 0.9663838893
C -4.1669467960 -0.5409786211 1.4718591074
C -3.0733300994 0.1493384691 1.0683107484
C -2.3360921658 1.0306489245 2.0296217126
C -0.8134544786 0.9036986348 1.9318317319
C -0.3406256645 1.0591350793 0.4830192916
C -1.0430615907 0.0717473728 -0.4698260296
C -0.4614614758 -1.3464021434 -0.3568840271
C 1.0530699351 -1.3444367114 -0.5589451735
C 1.8480712665 -0.3836701718 0.3471611340
C 1.1918344411 1.0188970707 0.3410514113
C 1.6794865026 1.7011028599 -0.9641116979
C 2.9134085074 0.9194084741 -1.4546110538
C 3.2363686415 -0.0974525743 -0.3416419734
C 4.1987801802 0.5316133432 0.6622516209
O 4.0787528591 1.6842006322 1.0532597701
C 5.3552404838 -0.2975877969 1.1756409036
O 6.0849687278 0.4000436528 2.1653745090
O 3.7883218021 -1.3259500864 -0.8165154143
C 2.0478824625 -0.9933239449 1.7384994621
O -0.7686412540 -2.0037640966 0.8900260242
H -2.7826860503 1.5056632437 -2.0665844468
H -2.5888087938 2.3555336140 -0.5233376453
H -4.1407397275 1.6253257069 -0.9259748422
H -2.8365897087 -1.9596131765 -0.8402047581
H -3.0468737662 -0.8902048206 -2.2197805018
H -5.1995324417 -1.9629866182 -1.4338823254
H -5.2966590491 -0.2118890404 -1.2866169289
H -4.4601670397 -0.5292108154 2.5197785194
H -2.6156931700 2.0680210875 1.7878272453
H -2.6863683475 0.8421624887 3.0490279137
H -0.3480302339 1.6820377987 2.5478033091
H -0.5114383500 -0.0620943086 2.3386516714
H -0.6286051441 2.0741843419 0.1737274049
H -0.8096529044 0.3738601853 -1.5012847269
H -0.8647906833 -1.9527661242 -1.1800069233
H 1.4232398865 -2.3669634994 -0.4359872832
H 1.2135039850 -1.0800578976 -1.6095427593
H 1.6050181435 1.5789150626 1.1872459738
H 1.9153633449 2.7506465352 -0.7701566958
H 0.8965896079 1.6849038734 -1.7285362951
H 3.7712245969 1.5640971458 -1.6653695055
H 2.6936076144 0.3561988486 -2.3663148296
H 5.9989197092 -0.5521388290 0.3187842552
H 4.9690280441 -1.2477220296 1.5693073289
H 5.6892546019 1.2889082082 2.2023152943
H 4.4692629207 -1.1180150136 -1.4693667550
H 2.5234489918 -0.2828349990 2.4245076411
H 1.0984390857 -1.3039783959 2.1712980097
H 2.6799623852 -1.8858028400 1.6677613411
H -1.7295582934 -2.0266290524 0.9947547612
