22
CONF59
C 2.0049735708 0.0409285161 1.3034238644
C 1.3359871467 0.7995869891 0.1691434874
C 0.1289515051 0.0833810873 -0.4361718766
C -1.0717950011 -0.0206985094 0.5184766120
C -2.1197350667 -1.0006408544 0.0105190140
O -2.5393992601 -0.6039007214 -1.3081401226
O -1.6286892315 1.2726693213 0.7724599423
O -0.2304449423 0.8646838287 -1.5931420778
O 2.3458111540 0.9738054847 -0.8391802810
O 2.4151998529 -1.2744653991 0.9192699921
H 1.3202331029 -0.0724732558 2.1479509122
H 2.8659310396 0.6337031860 1.6456102943
H 1.0104558596 1.7801472705 0.5526406218
H 0.4311242787 -0.9284107623 -0.7419680564
H -0.7328200567 -0.4102237278 1.4858032271
H -1.6802991151 -2.0079280689 -0.0097954956
H -2.9744096503 -1.0000117286 0.7004753729
H -3.1242229337 -1.2868238425 -1.6570661991
H -1.6500206372 1.7303880891 -0.0812527887
H -0.9515419126 0.3852370340 -2.0325608254
H 1.8829807735 1.2139033253 -1.6546167197
H 2.9617303279 -1.1728570611 0.1281211024
