57
CONF36
C -4.5290524233 1.7270138526 -2.2881750073
C -3.3506628270 0.7834677773 -2.4830301585
C -2.4701442722 0.7148285531 -1.2378722953
O -2.7772859405 1.3244724595 -0.2185818224
N -1.3287879876 -0.0542135407 -1.3324440170
C -1.0291566080 -0.7217535567 -2.5653302874
C -0.1905726226 -0.1229863693 -3.5045975593
C 0.0872172681 -0.7755759554 -4.7012545456
C -0.4684419461 -2.0247741621 -4.9650279343
C -1.3026855263 -2.6240134860 -4.0254340590
C -1.5806912364 -1.9752981880 -2.8268250923
C -0.3606846979 -0.1401330742 -0.1811468755
C -1.0690605630 -0.7473858434 1.0475293768
C -0.1092349181 -1.0386683876 2.1992449703
N 0.9824914666 -1.9075201137 1.7564694201
C 1.7206981433 -1.3418992892 0.6342964973
C 0.7978817877 -1.0826611121 -0.5528580458
C 1.8334563869 -2.4345663759 2.8122086703
C 2.9429790425 -1.5151167468 3.3919245163
C 2.4653833788 -0.2373302296 3.9966133004
C 2.6470618349 1.0420111637 3.5398274067
C 1.9851124743 2.0283767921 4.3191575989
C 1.3030212666 1.4984404625 5.3772984218
S 1.4745089143 -0.2263476724 5.4330528897
C 0.1661651168 1.2645990598 0.1351328939
O 0.9133357218 1.7480530087 -0.9792079414
C 1.3785614234 3.0668894938 -0.7546112722
H -5.1430121241 1.7549763178 -3.1931071516
H -4.1856096736 2.7403001132 -2.0667768305
H -5.1522496403 1.4068844525 -1.4502249964
H -3.6986979755 -0.2269383718 -2.7289773242
H -2.7372127099 1.0902223022 -3.3385818272
H 0.2383429412 0.8466874774 -3.2738043107
H 0.7397828622 -0.3062092744 -5.4307258364
H -0.2507279526 -2.5308972730 -5.8999138936
H -1.7350436979 -3.5995335430 -4.2239662468
H -2.2267763342 -2.4327452099 -2.0834412900
H -1.5327806349 -1.6866047574 0.7221102546
H -1.8614358695 -0.0804538031 1.3928700821
H -0.6600570369 -1.5601969078 2.9917254041
H 0.2444072849 -0.0910681937 2.6391783773
H 2.4873325055 -2.0653583833 0.3259421137
H 2.2559411457 -0.4093689913 0.8978685079
H 1.3810490852 -0.6656778710 -1.3773896731
H 0.3826033108 -2.0407921266 -0.8812327894
H 1.1844182349 -2.7671510503 3.6324188467
H 2.3409310125 -3.3305432943 2.4241846119
H 3.4964201384 -2.1076860731 4.1324627781
H 3.6609210757 -1.2622925242 2.6038352650
H 3.2354245554 1.2638035611 2.6562905113
H 2.0153331838 3.0901352665 4.1062973324
H 0.7252311686 2.0131128480 6.1319453240
H -0.6752664212 1.9324341434 0.3548771706
H 0.8132365252 1.2261746496 1.0249221007
H 2.0432108961 3.1140190278 0.1234585704
H 1.9397083076 3.3713051367 -1.6417644003
H 0.5431623915 3.7664318398 -0.5968403327
