38
CONF6
C 3.2419485233 -0.5179829745 -2.4954550377
N 2.0846704661 -1.3860178679 -2.2834372591
C 1.0866856190 -1.1916998331 -3.3339645876
C 1.5180555171 -1.2608070016 -0.9359669542
C 1.0140598565 0.1304901141 -0.5241123269
C 0.3202783634 0.0876269047 0.8482832794
C -0.9180088530 -0.7916787706 0.8718795607
C -1.1191222270 -1.6772210536 1.9331327858
C -2.2545320198 -2.4802232451 2.0051049489
C -3.1978130463 -2.3875887771 0.9910265111
Cl -4.6396842969 -3.4018540345 1.0599056231
C -3.0313444169 -1.5192179018 -0.0808808200
C -1.8901551242 -0.7247144191 -0.1305937805
C -0.0233602208 1.4870540518 1.3311224748
C 0.4491261224 1.9516177717 2.5604615709
C 0.1126875096 3.2351430867 2.9744458575
C -0.6867792951 4.0180827799 2.1490747279
C -1.1122298050 3.4744745221 0.9413458892
N -0.7943577318 2.2400500672 0.5329329074
H 2.9854251177 0.5565761012 -2.5362893191
H 3.9678643928 -0.6655643214 -1.6881636389
H 3.7240272315 -0.7795876197 -3.4443051695
H 0.7095726296 -0.1546153946 -3.4016541372
H 0.2322372278 -1.8552342802 -3.1600207487
H 1.5275032059 -1.4464504784 -4.3044608136
H 2.2837502151 -1.5826290053 -0.2157900641
H 0.6895756108 -1.9777777926 -0.8623047404
H 0.3225951396 0.5339809692 -1.2698377565
H 1.8539796943 0.8314597614 -0.4573295681
H 1.0278482653 -0.3331276292 1.5722330122
H -0.3745880254 -1.7469722144 2.7214354066
H -2.3962602947 -3.1662311351 2.8327295211
H -3.7774877039 -1.4633174524 -0.8656668822
H -1.7632674013 -0.0493488797 -0.9692792111
H 1.0717605659 1.3124387096 3.1784612205
H 0.4697259883 3.6173175694 3.9258727839
H -0.9755608951 5.0253535419 2.4291131228
H -1.7388264127 4.0581964748 0.2684867144
