51
CONF37
C 4.2384115501 1.1670355410 -0.9752690687
C 4.7703235162 0.8328112383 0.3929088543
C 6.0642763053 1.0341308345 0.7287616900
C 7.1256484273 1.5937587701 -0.1637643230
O 8.3565460595 1.6079105415 0.5730537176
C 3.8637887972 0.2799667485 1.3760373814
C 2.5419468950 0.0292268345 1.1835035039
C 1.7015693724 -0.5269366468 2.2015541781
C 0.3644505885 -0.8136324412 2.1190626926
C -0.3317541110 -1.4175498225 3.3084057106
C -0.4086008275 -0.5547277206 0.9268116405
C -1.7311957239 -0.8082380101 0.7853790425
C -2.5479141246 -0.5284490508 -0.3951141721
C -2.1478094993 -0.7974063314 -1.6635114230
C -0.8306628268 -1.4327818276 -2.0195585229
C -3.0013930229 -0.4832425154 -2.8681537747
C -4.4657665235 -0.2187622195 -2.5423978404
C -4.5570453207 0.6947920991 -1.3306588204
C -3.9302286507 0.0690037611 -0.0734597419
C -3.7940746349 1.1835885409 0.9801055898
C -4.8555108106 -1.0277102789 0.4887820827
H 5.0120723479 1.5722819245 -1.6288475959
H 3.8188332161 0.2762030621 -1.4564529993
H 3.4310259536 1.9051030917 -0.9078358035
H 6.3959881511 0.7774674994 1.7337577500
H 7.2307331080 0.9815950835 -1.0746536265
H 6.8622263721 2.6139299968 -0.4895663044
H 9.0365634437 1.9747982266 -0.0039337072
H 4.2967285649 0.0498049562 2.3501571774
H 2.1056163835 0.2567412001 0.2147409709
H 2.1979799510 -0.7485475361 3.1463995933
H -1.1598908645 -0.7831381733 3.6473486159
H -0.7633485768 -2.3950338148 3.0615036296
H 0.3621599263 -1.5494647239 4.1413111404
H 0.1092460229 -0.0929543884 0.0920262084
H -2.2717918987 -1.1918398690 1.6491217775
H -0.3697480656 -1.9497731682 -1.1761344134
H -0.1142520959 -0.6814534033 -2.3788460095
H -0.9714667830 -2.1462626514 -2.8393092955
H -2.5670026573 0.3952102663 -3.3728730052
H -2.9123250570 -1.3055865012 -3.5894904811
H -4.9692668450 0.2317597710 -3.4049953733
H -4.9752064556 -1.1680666208 -2.3389632230
H -5.5991153739 0.9581637764 -1.1097278084
H -4.0296771323 1.6326676183 -1.5557374006
H -4.7657137529 1.6678693406 1.1314464748
H -3.4563115384 0.7954316359 1.9456669391
H -3.0780334016 1.9435279510 0.6489167268
H -5.8257443701 -0.5947543020 0.7592282758
H -5.0226452917 -1.8234642701 -0.2426455620
H -4.4326406741 -1.4850050281 1.3890162324
