45
CONF87
C -5.7965184831 2.5924479644 2.7535058429
C -5.1725360062 1.2604048085 2.4867296814
C -4.2254409637 1.0337221401 1.5695565386
C -3.6631980604 -0.3031486302 1.3194776563
C -2.1512052770 -0.5523374855 1.1056172894
C -3.1664925856 -0.7571189217 -0.0235714971
C -3.1868520745 0.1789561326 -1.2091993296
C -3.4138161600 -2.2038765185 -0.3937562767
C -1.1805501137 0.5482577130 1.0857254557
O -1.3742601867 1.7071481113 0.7743380523
O 0.0426176062 0.0751415647 1.4818892521
C 1.1587533276 1.0014096089 1.4476686012
C 2.2218527981 0.4199811161 0.5656876054
C 2.0294211618 0.3295897094 -0.8097071417
C 2.9847854011 -0.2245897783 -1.6452513878
C 4.1848601949 -0.7243969769 -1.1489661515
C 4.3818200558 -0.6251203730 0.2229513127
C 3.4207958107 -0.0773743123 1.0625496530
F 3.6737461808 -0.0302627260 2.3823315893
F 5.5265536397 -1.0741771428 0.7666465732
C 5.2346932528 -1.2847848978 -2.0610769998
O 6.0402825952 -0.1956255531 -2.5167919714
C 7.0647424469 -0.6556640849 -3.4017564463
F 2.7390501251 -0.2728116524 -2.9659606121
F 0.8828889209 0.7897282147 -1.3421423072
H -5.3773684262 3.3667547436 2.1044440863
H -5.6450222268 2.8948569838 3.7970323579
H -6.8814109811 2.5571344537 2.5951858647
H -5.5303999279 0.4255262002 3.0915261161
H -3.8593272951 1.8623261596 0.9703221715
H -4.1110625583 -1.0861940602 1.9285512749
H -1.7670528316 -1.4647942903 1.5482258684
H -4.1737900670 0.1384371090 -1.6832200809
H -2.4449096099 -0.1433666773 -1.9481319016
H -2.9725629337 1.2124191384 -0.9402372149
H -4.3911072675 -2.3002342957 -0.8800878796
H -3.4022797736 -2.8519196924 0.4871299700
H -2.6489915885 -2.5562179183 -1.0947843297
H 0.8196760476 1.9660012673 1.0629209264
H 1.5208534043 1.1191916250 2.4695570867
H 4.7596992464 -1.7917221500 -2.9127856054
H 5.8500915944 -2.0181991761 -1.5223971815
H 7.6367014551 0.2218974535 -3.7093021821
H 7.7312952208 -1.3681178525 -2.8952876821
H 6.6309757004 -1.1392773322 -4.2884895475
