40
CONF20
C 3.4676623319 0.6669463430 -1.3518209402
N 2.8437640984 1.8646477702 -0.7821182814
C 2.6963945591 2.8752261367 -1.8333339256
C 1.5229440696 1.5513405435 -0.2194153870
C 1.5986078441 0.7241674549 1.0609789585
C 0.2151109601 0.4640509290 1.6598550955
N -0.6822966123 -0.2107646719 0.7123589650
C -0.3001008959 -1.4487447602 0.1580444765
C 0.5988209425 -2.3056100769 0.8038584826
C 0.9852101438 -3.5029533926 0.2079199199
C 0.4558561180 -3.8864156555 -1.0208091237
C -0.4759589317 -3.0660798039 -1.6521612307
C -0.8340213848 -1.8510738105 -1.0760970798
S -1.9480879552 -0.7463199273 -1.9191347712
C -2.7862320619 -0.0981998472 -0.4904441555
C -2.0386649810 0.1362493081 0.6779368450
C -2.6822864185 0.7111188233 1.7816710219
C -4.0176052638 1.0783540219 1.6725272032
C -4.7628843363 0.8577135142 0.5234644923
C -4.1325552482 0.2400275268 -0.5546534298
Cl -4.7941456694 1.8302292570 3.0641862206
H 3.6600474991 -0.0794655738 -0.5762622170
H 4.4280830549 0.9357856920 -1.8031547862
H 2.8355619950 0.2003077175 -2.1333268124
H 3.6790613606 3.1238809589 -2.2473938214
H 2.0506428427 2.5287446475 -2.6637898188
H 2.2566621731 3.7864135410 -1.4146785058
H 0.8952666169 1.0270260597 -0.9675512073
H 1.0202468393 2.5006592477 0.0078467813
H 2.1167525916 -0.2206357035 0.8794258040
H 2.1824210209 1.2677536121 1.8128927441
H -0.2448433316 1.4291191465 1.8898562910
H 0.3029047629 -0.0872013435 2.6077470598
H 1.0016077906 -2.0370928652 1.7733685180
H 1.6970495728 -4.1431263137 0.7190692502
H 0.7533926058 -4.8216886810 -1.4828649040
H -0.9137199843 -3.3564249444 -2.6022155456
H -2.1549305077 0.8643749875 2.7144826829
H -5.8042712665 1.1497926076 0.4653782157
H -4.6914674525 0.0478677308 -1.4649379853
