46
CONF28
C -3.9200171344 -2.1045857645 0.9544488036
C -2.7858943875 -1.9081719726 1.9338996286
C -1.3486259410 -1.9176851979 1.4680472244
C -2.0029571532 -0.6081523997 1.9875570728
C -2.2083551701 0.5144981076 1.0542356709
O -2.6229138685 0.4488285757 -0.0886543859
O -1.8320700554 1.6757949405 1.6470973098
C -1.8057798568 2.8709210629 0.8007693302
C -0.4326613436 3.0321103093 0.2129519141
C -0.0309101143 2.2315136410 -0.8618478630
C 1.2649052987 2.3363928248 -1.3419456536
C 2.1753890380 3.2368847522 -0.7960094492
C 1.7676015933 4.0400516422 0.2630200655
C 0.4735602512 3.9345171732 0.7709462011
O 1.6236957967 1.5593473797 -2.4365875191
C 2.5358186100 0.5409786463 -2.2380810017
C 2.8598172571 0.0427540590 -0.9772038439
C 3.7677460940 -1.0100870088 -0.8807524739
C 4.3400966056 -1.5667303933 -2.0208805316
C 3.9969294992 -1.0612966390 -3.2748696693
C 3.0991955678 -0.0064541848 -3.3903611107
C -0.9847799127 -2.0588045849 0.0589206484
C 0.0989821828 -2.6906333198 -0.3941151328
Cl 0.4485814364 -2.8247460256 -2.0983923580
Cl 1.2841234831 -3.4662060406 0.6228782727
C -3.0422853165 -2.5465201789 3.2832908514
H -4.0794510787 -3.1775688810 0.8026872462
H -4.8404360697 -1.6827510852 1.3720117293
H -3.7411369187 -1.6342687152 -0.0105014351
H -0.6357855254 -2.3300747403 2.1748437568
H -1.6541113110 -0.3042034311 2.9684044108
H -2.0445106150 3.6936714322 1.4760620462
H -2.5750687210 2.7807198845 0.0309424827
H -0.7137044697 1.5211741477 -1.3150884385
H 3.1812150756 3.2994687280 -1.1987160663
H 2.4634861305 4.7514262863 0.6960952959
H 0.1657848899 4.5573751278 1.6055346226
H 2.4089607551 0.4625909740 -0.0849290904
H 4.0194909727 -1.3997852646 0.1005631433
H 5.0438607002 -2.3878611921 -1.9350647823
H 4.4343010852 -1.4873503127 -4.1725825277
H 2.8253028593 0.3982945939 -4.3591664614
H -1.6324899614 -1.6184306597 -0.6908202194
H -3.2000349803 -3.6236600461 3.1624239076
H -3.9420534336 -2.1183035242 3.7383747300
H -2.2028105476 -2.3949827265 3.9675872401
