47
CONF129
C 0.9239868364 2.4813033204 2.3729854568
C -0.5976184266 2.3508745347 2.3928968182
C -1.1302191335 1.6879038763 1.1220357784
C -2.6418309637 1.5675890866 1.1500949069
O -3.1150524644 0.8809590937 -0.0526478379
C -3.2855607237 1.6259362498 -1.1464201835
O -3.1985195207 2.8364025300 -1.1969441059
C -3.6745391147 0.7861353881 -2.3639598287
C -5.1894936312 0.6865575384 -2.4574927226
O -3.1728493745 -0.5522991773 -2.2960645429
C -1.8158849401 -0.7264553612 -2.2183615694
C -1.3947508316 -2.0265948260 -1.9210871834
C -0.0429012601 -2.3075387935 -1.7925039924
C 0.8807150337 -1.2827717338 -1.9562108309
C 0.4809560273 0.0029703353 -2.2717821270
C -0.8768205386 0.2889016172 -2.4094663571
O 2.2521339611 -1.5669013912 -1.8696128132
C 2.8325525742 -1.5502935237 -0.6402211865
C 4.2027651757 -1.8440753511 -0.6001509072
C 4.8224267485 -1.8306490516 0.6301907320
C 4.0627295998 -1.5364620869 1.7695859172
C 2.7119709724 -1.2595470588 1.6173039778
N 2.0997379842 -1.2643763041 0.4260367153
C 4.7127296646 -1.4766477352 3.1116902687
F 5.3684074542 -0.2976079554 3.3111802463
F 5.6393449564 -2.4548299190 3.2738891968
F 3.8225413451 -1.5977048140 4.1236587429
H 1.2518764854 3.0860629030 1.5204481739
H 1.2942661535 2.9557253405 3.2869095694
H 1.3984522850 1.4975095659 2.2871423614
H -0.9089065025 1.7646413526 3.2670191163
H -1.0523920769 3.3437508826 2.5026627128
H -0.8278183423 2.2733059364 0.2449927563
H -0.6921408376 0.6873388987 1.0120756064
H -3.1288039829 2.5443024526 1.2169630628
H -2.9787496050 0.9320578525 1.9720465058
H -3.2773714171 1.3005579835 -3.2478282303
H -5.5924799698 0.1753595055 -1.5790201137
H -5.4623389462 0.1287639612 -3.3565440044
H -5.6211610875 1.6883512970 -2.5199208207
H -2.1386316156 -2.8043426532 -1.7836490389
H 0.2954999884 -3.3099479762 -1.5516090945
H 1.2221321222 0.7847015567 -2.4015208672
H -1.1718697630 1.3017752856 -2.6558101312
H 4.7414806364 -2.0710646542 -1.5123535855
H 5.8819631766 -2.0498673767 0.7113868743
H 2.0900349205 -1.0269607125 2.4779858958
