38
CONF3
C 0.5205825872 3.4313350748 -1.4691793965
N 0.5143821658 2.0874280528 -0.8915137747
C 1.6927946328 1.4607586765 -0.6012548166
C 1.7514855609 0.2548975796 0.0354587133
C 0.5122855211 -0.4328207016 0.4290756647
O 0.5086896668 -1.5277633819 1.0003675170
C -0.7238754319 0.2858777187 0.0842181520
C -0.6632559404 1.5020777116 -0.5343164577
C -2.0399139325 -0.2990875120 0.3928633030
C -2.2699680211 -0.9704512618 1.6006864517
C -3.5283872830 -1.4837119366 1.8928452492
C -4.5763143640 -1.3488483536 0.9914691254
C -4.3496364973 -0.6952053375 -0.2186360247
C -3.0953138717 -0.1800879653 -0.5201773247
C -5.4918030018 -0.5461700248 -1.1793371250
F -6.1320867415 -1.7223281496 -1.3897922302
F -5.0997244476 -0.0825741367 -2.3885495972
F -6.4281779926 0.3213856574 -0.7096357861
C 3.0671470479 -0.3425741768 0.3259698082
C 3.2943913672 -1.7126853412 0.1400027579
C 4.5521896738 -2.2533828055 0.3751179631
C 5.6000525322 -1.4466876176 0.8112121245
C 5.3813024829 -0.0877765502 1.0149447908
C 4.1251021907 0.4574577189 0.7780645232
H -0.3764847838 3.5726389368 -2.0754615218
H 0.5481946876 4.1964996219 -0.6846903610
H 1.3960057662 3.5463518988 -2.1114786296
H 2.5896237858 1.9757073470 -0.9302195511
H -1.5576017176 2.0732858893 -0.7623731609
H -1.4554504747 -1.0884256528 2.3029101200
H -3.6916726519 -1.9975143286 2.8343592631
H -5.5570182776 -1.7550242820 1.2153432517
H -2.9263759943 0.2871624188 -1.4837002521
H 2.4797218226 -2.3458036623 -0.1870250437
H 4.7141303965 -3.3154630116 0.2203919019
H 6.5783281350 -1.8764580061 1.0011660964
H 6.1855832102 0.5467128649 1.3738236702
H 3.9510668902 1.5112667162 0.9767204934
