29
CONF6
C -3.1910522889 -1.4156859317 0.0747112677
C -2.2136221066 -0.3666281630 0.5375573958
O -2.5770280587 0.9178122018 -0.0544784770
C -1.3993048770 1.4752896433 -0.4764932858
C -1.1761648807 2.7550532353 -0.9375568677
C 0.1325419891 3.0606647534 -1.3381236838
C 1.1549579984 2.1211984958 -1.2633958578
C 0.8950152437 0.8307830770 -0.7965587417
C -0.3934623408 0.5179349139 -0.4205362453
O -0.8918916926 -0.6780609746 0.0019752401
O 1.9078142830 -0.1167173340 -0.7756737912
C 2.2185664123 -0.6421562129 0.4710718339
O 1.7598416202 -0.2420712199 1.5165577881
N 3.1109801775 -1.6523460832 0.3259325460
C 3.6981088077 -2.0853382759 -0.9342311473
C -2.1009002731 -0.2064448209 2.0399504610
H -3.2032637348 -1.4569411353 -1.0161972771
H -4.1918325658 -1.1711223594 0.4386257559
H -2.8981848866 -2.3907435047 0.4712272885
H -1.9750476107 3.4851350795 -0.9832678967
H 0.3551756332 4.0575753978 -1.7016907990
H 2.1688080108 2.3713207426 -1.5542592881
H 3.4493040775 -2.0337493215 1.1918123708
H 4.3333134247 -2.9516546182 -0.7373338905
H 2.9220515960 -2.3786473316 -1.6469750678
H 4.3097552649 -1.2996246664 -1.3923710198
H -1.7895088919 -1.1524418569 2.4896080346
H -3.0656294769 0.0949722348 2.4561103628
H -1.3493415525 0.5526337382 2.2723025718
