59
CONF146
C 2.4981448937 2.2088422705 3.2265261396
C 3.5079848943 1.6069564226 4.2072614757
C 4.7639352164 1.4708293756 3.3408434872
C 4.2522658029 1.0475028339 1.9367616206
C 2.7249224563 1.3819732048 1.9539482580
C 4.4899628500 -0.4397401670 1.6807689175
C 4.0220751363 -0.8860106435 0.3211412291
O 3.5937557343 -2.0132365038 0.1171537657
N 4.1264243274 0.0411957396 -0.7230198153
C 4.6199977865 1.3403364941 -0.5627136057
O 4.7500321652 2.0718790102 -1.5348140394
C 4.9855502741 1.7939903312 0.8272541737
C 3.7043711257 -0.3614346224 -2.0813659336
C 2.3245676533 0.1843080008 -2.4458390832
C 1.2073607715 -0.3143960113 -1.5303311056
C -0.1442900886 0.2564407453 -1.9503420685
N -1.2017035054 0.0530085066 -0.9506973024
C -1.5207199337 -1.3703290396 -0.7776614543
C -2.6180100873 -1.5495873840 0.2676249544
N -3.8129175617 -0.7983524191 -0.1166824036
C -3.5123229400 0.6212872366 -0.3059113253
C -2.4115065457 0.7843325673 -1.3493095577
C -4.8687674505 -1.3988402013 -0.7431197117
N -4.9136200362 -2.7542353023 -0.7361683143
C -5.9819939481 -3.3149128075 -1.2997443438
C -7.0112126113 -2.5822387253 -1.8796433643
C -6.8621722691 -1.2006102235 -1.8419681468
N -5.8133430625 -0.5938154200 -1.2897422822
H 2.7484578832 3.2615724223 3.0436627668
H 1.4629475775 2.1658235444 3.5781747393
H 3.6718102469 2.2210256109 5.0980127200
H 3.1627326340 0.6186685875 4.5370430179
H 5.4977525373 0.7626017369 3.7384642921
H 5.2561001141 2.4482933112 3.2654100073
H 2.1464488978 0.4520197489 2.0168254684
H 2.4026882296 1.9021615226 1.0452689274
H 5.5660187687 -0.6606190037 1.7367609357
H 3.9854388219 -1.0681951537 2.4194986775
H 4.7968749547 2.8711194975 0.8691519555
H 6.0712320227 1.6526507197 0.9342519411
H 3.7045292018 -1.4521081259 -2.1039615423
H 4.4558699456 0.0094003374 -2.7816540953
H 2.3524421607 1.2801137308 -2.4346268132
H 2.1189096101 -0.1174960069 -3.4808053732
H 1.4080286216 -0.0108936523 -0.4949631530
H 1.1926058129 -1.4096753763 -1.5490752932
H -0.4363287445 -0.1689467886 -2.9320349044
H -0.0392588070 1.3402996460 -2.0925215385
H -1.8499347196 -1.8275214099 -1.7336032533
H -0.6281791738 -1.9055641570 -0.4388000352
H -2.2697469508 -1.1577001088 1.2319940839
H -2.8637307206 -2.6038549643 0.3850461264
H -3.1713234735 1.0260500544 0.6556446556
H -2.7937024559 0.4317737053 -2.3292951264
H -2.1632958986 1.8475823217 -1.4495040250
H -6.0127910674 -4.4041718923 -1.2898736760
H -7.8701334035 -3.0570145174 -2.3367079763
H -7.6180238326 -0.5482272509 -2.2785782227
H -4.4109619900 1.1540043898 -0.6131469053
