34
CONF5
C 5.0546442444 1.7209595075 -0.6239634559
C 3.8232774000 0.9550724347 -0.2309816755
C 2.8388774959 1.5439145607 0.5672021677
C 1.6846569245 0.8561480269 0.9105987575
C 1.4822914666 -0.4511959900 0.4537671408
C 2.4670249482 -1.0522840766 -0.3361709105
C 3.6187998394 -0.3548855524 -0.6705796991
C 0.2920997559 -1.2095843009 0.8263311069
C 0.1674166275 -2.4554371983 1.4269726545
N -1.1142903829 -2.7936503133 1.6687633238
C -1.8290809264 -1.7720076419 1.2168899075
N -1.0193721163 -0.7755461251 0.6958663665
S -1.5183599594 0.6982363055 -0.2240838902
O -0.6850669079 0.6302636788 -1.4145213700
O -1.4661072675 1.7901228330 0.7364104578
N -3.0739711022 0.3614343499 -0.5748427106
C -4.1747071439 1.1295322868 0.0169224132
C -3.3822590661 -0.4736929425 -1.7396634843
C -3.2356115701 -1.7299871145 1.2957087435
N -4.3909352723 -1.7638469051 1.3937195472
Cl 1.4689901891 -3.4858451023 1.8921062467
H 5.8845811199 1.0490478794 -0.8567968457
H 4.8615634359 2.3298692124 -1.5151325061
H 5.3713373569 2.3992825622 0.1729434283
H 2.9828139062 2.5564153325 0.9336146846
H 0.9433548273 1.3285125709 1.5454852010
H 2.3210447016 -2.0655276226 -0.6946419448
H 4.3716459611 -0.8352257352 -1.2889693638
H -4.9766990088 0.4319044890 0.2753057827
H -3.8381635147 1.6304734768 0.9238422127
H -4.5389798138 1.8782595654 -0.6967022266
H -4.2124078023 -1.1353894570 -1.4737098009
H -3.6601234329 0.1469439410 -2.5997454583
H -2.5182853097 -1.0822876289 -2.0119445888
