41
CONF35
C 3.6843191865 2.8655167259 -3.3177326408
C 3.0399400347 1.9573067820 -2.3256821144
N 2.0701385309 1.1536927835 -2.7731428603
C 1.5231453311 0.3618796468 -1.8373360588
N 1.8637700668 0.3272809564 -0.5482968315
C 2.8472476406 1.1750482528 -0.2219429478
N 3.4721307256 2.0080649953 -1.0539005857
O 3.1826256719 1.1335607988 1.0617372466
C 4.2312936547 2.0292549644 1.5138483634
N 0.5241149088 -0.4698354359 -2.2956250143
C -0.2575637057 -1.4272684370 -1.6432838748
O -1.1242827599 -2.0306214935 -2.2555427328
N 0.0313034888 -1.6260508019 -0.3133591593
S -0.9204572528 -2.6283805638 0.6808923477
O -0.3850740885 -2.3872740523 2.0268137442
O -0.9171908413 -3.9788628485 0.1173647997
C -2.5986910166 -1.9896711743 0.5964490362
C -3.5047169975 -2.6836447976 -0.1992774557
C -4.8396702135 -2.2948446691 -0.2089824392
C -5.2629956056 -1.2397559028 0.5929037447
C -4.3545862544 -0.5656821031 1.4018435194
C -3.0050738356 -0.9193303633 1.4029180917
C -2.1012504284 -0.1281550006 2.2958996993
O -2.3031974209 0.0185835220 3.4819620348
O -1.1087378595 0.4514107751 1.6104430850
C -0.1710089193 1.2234158661 2.4084775161
H 4.4903886602 3.4359607384 -2.8575872806
H 2.9337567507 3.5509945836 -3.7249386483
H 4.0715933025 2.2796436883 -4.1567979236
H 5.1655677142 1.8096990646 0.9933189713
H 4.3259960347 1.8253341790 2.5793549027
H 3.9401393731 3.0675903926 1.3426390933
H 0.3068500691 -0.3763923273 -3.2799940959
H 0.6797840133 -0.9743413445 0.1482263853
H -3.1662959451 -3.5225941822 -0.7943536315
H -5.5475096133 -2.8283738920 -0.8339362240
H -6.3062157433 -0.9423096570 0.5962744734
H -4.6823233311 0.2512514825 2.0360796520
H 0.5326785359 1.6452216301 1.6937561177
H 0.3406743004 0.5623328300 3.1121436597
H -0.7006166861 2.0109846531 2.9483661515
