119
CONF201
C -11.6078697937 1.6211347663 -3.7355642580
C -10.2551436615 2.2884049771 -3.4688484102
C -9.5021750458 2.5626799162 -4.7719292397
C -9.3691402937 1.4928045230 -2.4813420582
C -10.0000493670 1.4657598405 -1.0747609679
O -10.7722379955 0.5663286897 -0.7529250115
N -9.6851879936 2.4763549515 -0.2295685144
C -10.3673627095 2.5700774832 1.0772687377
C -9.8498917318 3.8803683771 1.6349481649
C -8.9627251079 3.8974704528 2.8491213364
C -10.3647691267 4.4574184344 2.9131777866
C -9.4928260382 4.7173857818 0.4243515486
C -8.8511312050 3.6636701953 -0.4937182530
C -7.4054181875 3.4511505228 -0.1230516462
N -6.5813415858 4.4262343533 0.2221933060
C -5.3742162888 3.8207599038 0.4392923474
C -5.4595088471 2.4556611008 0.2263467481
N -6.7794183013 2.2419119900 -0.1297101765
C -4.4729451713 1.4017323164 0.3659938618
C -3.1031162118 1.7366764774 0.4099044267
C -2.1789798697 0.7337286152 0.5749360339
C -2.5469282533 -0.6169564990 0.6821296829
C -3.8921182629 -0.9573424162 0.6283068079
C -4.8413024428 0.0497174035 0.4777228928
C -1.3372728441 -1.4289640227 0.8372876861
C -0.2162521617 -0.5858555103 0.8205064579
C -0.6741178668 0.8444896219 0.6553565819
F -0.1368849594 1.4305191965 -0.4719093190
F -0.2708382234 1.6411295777 1.7061043549
C 1.0665432001 -1.0660941379 0.9563412559
C 1.2644881912 -2.4509626735 1.1116463764
C 0.1405704398 -3.2919793771 1.1250196579
C -1.1542796991 -2.7976798100 0.9916987372
C 2.6243633288 -3.0055385670 1.2489889723
C 3.6765281398 -2.4651915766 0.5026410390
C 4.9336863400 -3.0276821355 0.6703354563
C 5.1789347288 -4.1063270214 1.5538572845
C 4.1249009493 -4.6379140487 2.2967657362
C 2.8667099044 -4.0819089111 2.1343252235
N 6.5161201291 -4.4638137323 1.5168858996
C 7.0581911066 -3.6410938545 0.6466619064
N 6.1571723276 -2.7618701024 0.0957870036
C 8.5004773728 -3.6210235946 0.2371727546
C 9.3744046253 -4.6364625311 0.9902475105
C 10.7627682103 -4.6694527602 0.3121237890
C 11.4031213604 -3.3052804187 0.7230084993
C 10.2759090599 -2.6604017608 1.5510238262
C 9.6779260148 -3.8639497221 2.2865008639
N 9.1700835478 -2.3400997355 0.6150059928
C 9.0183738154 -1.2288177268 -0.1329640447
O 8.2042538155 -1.1656525156 -1.0655611103
C 9.8351385948 -0.0027476611 0.2732045108
C 9.2008890852 0.6763200171 1.5210747691
C 10.0802924725 1.8372136430 1.9839430502
C 7.7668916341 1.1359229752 1.2599836572
N 9.9100099837 0.8905344377 -0.8643311773
C 11.1133148189 1.3587652810 -1.3009012726
O 12.1730111541 1.2596739787 -0.7104227251
O 10.9591552744 1.9890148275 -2.4986170543
C 12.1714713876 2.5577489961 -3.0242253047
N -9.1661282309 0.1314771228 -2.9511926756
C -8.3630599999 -0.6786420607 -2.2075290821
O -7.5830621594 -0.2922243950 -1.3460732252
O -8.4987043825 -1.9710974152 -2.5687136012
C -7.6620446602 -2.8895512134 -1.8375631671
H -12.1046321585 1.3192465473 -2.8097780885
H -12.2611631016 2.3156676973 -4.2717069799
H -11.5015123636 0.7379224291 -4.3764906124
H -10.4558233062 3.2503844136 -2.9779663096
H -8.5741158599 3.1137468644 -4.5888636400
H -9.2443753511 1.6263294026 -5.2765965442
H -10.1210411913 3.1542034836 -5.4535173339
H -8.3850718199 1.9737353026 -2.4459906430
H -11.4534499002 2.5826100757 0.9146628597
H -10.1324701494 1.7040870528 1.7049319741
H -8.7718440097 2.9539369443 3.3505570645
H -8.1315133745 4.5942935014 2.8505816501
H -10.4803577255 5.5351300353 2.9709813759
H -11.1124300630 3.8909939218 3.4600909931
H -10.3970258411 5.1137694862 -0.0545645814
H -8.8030407658 5.5338438909 0.6411614727
H -8.9255366290 3.9575808095 -1.5474195377
H -4.5137945407 4.3848592024 0.7707680141
H -7.1731963773 1.3587033882 -0.4523451963
H -2.7851999368 2.7685933355 0.3048014808
H -4.2122126012 -1.9913801602 0.7118604665
H -5.8889154012 -0.2259445816 0.4469585878
H 1.9120408013 -0.3856836198 0.9738854237
H 0.2910830292 -4.3630998889 1.2137194076
H -1.9995170854 -3.4786967011 0.9987742872
H 3.5002455140 -1.6622117385 -0.2053690977
H 4.2962630746 -5.4553236328 2.9887594443
H 2.0411321171 -4.4582006261 2.7292439154
H 6.4219084340 -2.0388497831 -0.5631396395
H 8.5635997308 -3.7422750056 -0.8526167729
H 8.8848111823 -5.6020878302 1.1069099398
H 11.3476202246 -5.5099413321 0.6958639286
H 10.6880234631 -4.7883237156 -0.7726327783
H 12.2954218581 -3.4444977647 1.3413323131
H 11.6836387232 -2.6860591407 -0.1334447336
H 10.5614895947 -1.8041042427 2.1616569730
H 10.4160734472 -4.3677299668 2.9162552756
H 8.7849688209 -3.6256027305 2.8675218045
H 10.8620413392 -0.2903272748 0.5249803021
H 9.1770614657 -0.0837965645 2.3139499278
H 11.1065465884 1.5133287748 2.1816683051
H 10.1199767370 2.6177605593 1.2175511441
H 9.6722968207 2.2815214457 2.8970998297
H 7.7394309830 1.8744807856 0.4520399080
H 7.3556695692 1.6081215019 2.1570283831
H 7.1113484504 0.3034284727 0.9868896737
H 9.1516223416 0.8322521583 -1.5304395651
H 12.5757752909 3.3059576729 -2.3370325083
H 12.9229151218 1.7808755863 -3.1896137382
H 11.8862918566 3.0208646074 -3.9691334638
H -9.9713440370 -0.3313804603 -3.3471206573
H -7.9039277937 -2.8576174021 -0.7719791333
H -7.8862209269 -3.8722514636 -2.2516057706
H -6.6068138985 -2.6423904864 -1.9808906224
