28
CONF7
F 1.3415073567 -0.1503279554 -0.8546536610
C 1.3356960510 1.1225386894 -0.3894616173
F 1.2973255836 1.0917769052 0.9590975593
C 0.1025886649 1.8804581994 -0.9523710346
F 0.3045574195 3.2035037804 -0.7381190930
F 0.0199415465 1.6575172263 -2.2777150325
C -1.2981072591 1.5584651087 -0.3026127804
F -1.2873719245 2.0053032277 0.9700384908
F -2.2102426108 2.2695104291 -1.0096028310
C -1.7398282163 0.0590635105 -0.3077034654
F -1.0264029336 -0.5965030595 0.6411922216
F -1.4658066821 -0.4841756861 -1.5138714625
C -3.2672457266 -0.1441283606 -0.0199659271
F -3.9620193126 0.1461313714 -1.1394906201
F -3.6601061241 0.6837699893 0.9745046951
C -3.6422734221 -1.6016236623 0.4070028857
F -4.9757928102 -1.7237947340 0.3933824755
F -3.2023229661 -1.8679828870 1.6413717198
F -3.1167674409 -2.4898677974 -0.4489331620
S 3.0102624453 1.9219787119 -0.9012501640
O 3.2512287227 2.9934285318 0.0569561639
O 2.9403252788 2.1013474790 -2.3472189762
N 4.1141941470 0.7108893896 -0.6105264782
C 4.4080171137 0.2935458729 0.7682008642
H 3.6664524463 -0.4052118364 1.1726732499
H 5.3933013780 -0.1802553057 0.7730395783
H 4.4519935424 1.1823505845 1.4002401057
H 4.0320153771 -0.0332194617 -1.2955865539
