59
CONF13
C 5.8879059464 -2.1766264423 -0.3029656373
C 5.8330450340 -1.4926499562 1.0675009725
C 5.2690612427 -0.0704798090 0.9380817480
N 3.8643030711 -0.1098555611 0.5616812966
C 3.0101159875 -1.0708746119 0.9744472103
N 1.6872668627 -1.0301743902 0.8141367495
N 1.2998701263 0.1126907489 0.2177134812
C 0.0059948435 0.2494254174 -0.0151575978
C -0.9493298030 -0.7971738647 0.3174466913
C -2.2343331892 -0.5992089257 0.6726450762
C -3.1953093631 -1.6346791857 1.0249764129
C -2.9661889379 -3.0052557121 0.8089640923
C -3.9074217744 -3.9510696157 1.1735898337
C -5.1108098062 -3.5531030145 1.7602761055
C -5.3671824505 -2.2007984609 1.9689048059
C -4.4183423039 -1.2577786390 1.6032763606
C -6.1421528689 -4.5847145606 2.0997964860
F -6.8780728837 -4.9395037974 1.0114679748
F -5.5835760216 -5.7259265934 2.5725187856
F -7.0173081764 -4.1482217883 3.0348440624
C -0.3487747816 1.4986131748 -0.6523198837
C -1.5100363043 1.7982458878 -1.2766436068
C -1.8185211210 3.0552847367 -1.9361686685
C -1.0600023396 4.2279597467 -1.7625722525
C -1.3845218850 5.3944566935 -2.4316989809
C -2.4845549618 5.4282197545 -3.2911847018
C -3.2643507771 4.2866430034 -3.4622788989
C -2.9331930773 3.1204505158 -2.7907985378
C -2.8570260182 6.7094610670 -3.9693029902
F -1.7681846662 7.4487393327 -4.2949697812
F -3.6326408965 7.4979537734 -3.1750939854
F -3.5571252347 6.5024686923 -5.1094636051
N 3.5273685627 -2.1913362838 1.5439401852
C 4.9015073787 -2.2598053016 2.0176545275
C 7.2308620867 -1.4260755345 1.6826250688
H 4.9018461113 -2.2239712825 -0.7714341483
H 6.2689100342 -3.1983806876 -0.2050357622
H 6.5585228149 -1.6298636483 -0.9735957374
H 5.8225991304 0.4791689349 0.1676663337
H 5.4075951075 0.4645412387 1.8917246016
H 3.3966841738 0.7027315446 0.1819692965
H -0.5305186213 -1.7990828727 0.3346053761
H -2.6020006862 0.4208078306 0.7621959880
H -2.0444787008 -3.3320266404 0.3406072103
H -3.7145449323 -5.0046391255 1.0016524225
H -6.3020551239 -1.8879537402 2.4197562120
H -4.6186269138 -0.2040503262 1.7735432659
H 0.4643340775 2.2208888151 -0.6592642082
H -2.2773116685 1.0325266953 -1.3545212706
H -0.2142945204 4.2289044088 -1.0838739857
H -0.7867573618 6.2879227310 -2.2869540262
H -4.1228492053 4.3098688212 -4.1240698760
H -3.5389204287 2.2305602420 -2.9343244603
H 2.8330178248 -2.8132867027 1.9273985168
H 5.2031104843 -3.3126225194 2.0619316888
H 4.9956987784 -1.8430486124 3.0344330013
H 7.9083669471 -0.8559023871 1.0388464195
H 7.6493055492 -2.4310569808 1.7989851371
H 7.2140252270 -0.9473365136 2.6675840028
