29
CONF5
C 3.1376232753 -2.8061969673 -0.8183315697
N 1.9657220260 -2.1359534623 -1.3654261724
C 1.6513005295 -0.8838855979 -0.9992270134
O 2.2994151994 -0.1641748816 -0.2582399643
O 0.4743654530 -0.4891959180 -1.6167787503
C -0.0451791664 0.7445207044 -1.2244503972
C 0.4450127533 1.9093515977 -1.7946953102
C -0.1245251808 3.1290711937 -1.4374530607
C -1.1757087943 3.1654445829 -0.5246111335
C -1.6618652589 1.9832017683 0.0292311572
C -1.0964139698 0.7541293035 -0.3076298574
C -1.5875742367 -0.5615899282 0.2747666826
O -0.5745544795 -1.2002978514 1.0436710634
C -0.6546069272 -0.5469821508 2.3234116458
C -2.1611850875 -0.3410991656 2.5053567752
O -2.6859268477 -0.3728906960 1.1541530732
H 3.2624865272 -3.7562330380 -1.3396947459
H 4.0324913685 -2.1970746296 -0.9737113443
H 3.0269287508 -3.0003421837 0.2547725403
H 1.3034652172 -2.6603431630 -1.9150213052
H 1.2624631550 1.8533236143 -2.5061887664
H 0.2529319600 4.0472636670 -1.8759450262
H -1.6234242329 4.1144739138 -0.2477765124
H -2.4899886721 2.0041983277 0.7293859397
H -1.8833991931 -1.2539371363 -0.5214480343
H -0.1151366817 0.4090298343 2.2982125620
H -0.2105358902 -1.2066100589 3.0701690558
H -2.3980407848 0.6190605714 2.9745325596
H -2.6261416318 -1.1562615413 3.0689656232
