76
CONF1531
C 2.6623384545 -2.1399155271 -0.5902474244
C 2.9691204151 -0.6655671289 -0.3064925832
C 4.0897300645 -0.5659635783 0.7462180090
C 5.4798005154 -0.9182535502 0.1772615702
C 6.4912343458 -0.9810689687 1.2771326100
O 7.0337449036 0.2262856910 1.5517149353
N 6.8337163064 -1.9965796925 1.9701577698
C 6.2457916269 -3.2947215507 1.6903450260
C 6.7741811061 -4.3214108840 2.6793259780
O 7.6485115930 -3.8470264245 3.5741888395
O 6.4385373313 -5.4879223602 2.6699080935
C 1.7400370724 0.1240337231 0.1773725298
C 2.0515062002 1.6397069793 0.3809450730
C 0.7543511640 2.4196502911 0.0522182004
C -0.3061289175 1.3236460366 -0.0706140035
C -1.6232483626 1.6640624261 -0.7617298971
C -2.3045804045 2.8907890492 -0.1315003295
O -2.4489606320 2.7711779951 1.3022284635
C -3.6882510263 3.1324480847 -0.7255249551
C -4.5945355418 1.8933026387 -0.7695706401
C -5.1383893829 1.5266121846 0.6235550187
C -6.0580218757 0.3144736904 0.5939565091
O -6.5701260125 0.0137219791 1.9087022568
C -5.3406293663 -0.8782526752 -0.0232281442
C -4.8491385148 -0.5152933936 -1.4233754355
C -3.8958877106 0.6991985453 -1.4763629182
C -3.6957092715 1.0233086305 -2.9680593932
C -2.5406567900 0.4211038982 -0.7608608942
C -1.8072154581 -0.8092997917 -1.3155169148
C -0.4490038704 -1.0944677617 -0.6605863763
O -0.6191689333 -1.4831641765 0.7184299864
C 0.4613954822 0.1424482726 -0.7138352227
C 0.8480242047 0.4219816759 -2.1752550793
H 2.0475010290 -2.2659254444 -1.4837217151
H 2.1282207072 -2.5862946316 0.2563482890
H 3.5797199455 -2.7156795900 -0.7489885544
H 3.3384078977 -0.1935702188 -1.2294148386
H 4.1457420107 0.4465707711 1.1558029257
H 3.8475983803 -1.2353330742 1.5830440137
H 5.7797910795 -0.1507805969 -0.5426677475
H 5.4569001294 -1.8793203756 -0.3422612394
H 7.6377867194 0.1271170743 2.3066530680
H 6.4904670759 -3.6701005282 0.6858747635
H 5.1494710398 -3.3070406978 1.7755246810
H 7.7409874374 -2.8847493563 3.3629837018
H 1.4422561948 -0.3007611316 1.1446212385
H 2.3766633266 1.8361760916 1.4063425671
H 2.8731746422 1.9496629767 -0.2757066026
H 0.8482908690 2.9651896078 -0.8940139585
H 0.5154551643 3.1601651404 0.8228682403
H -0.5484779780 0.9801899119 0.9458351236
H -1.4028590276 1.9533865167 -1.7981030883
H -1.6804414520 3.7735914763 -0.3409408361
H -1.5641553183 2.7679839889 1.6874896534
H -3.5408986381 3.5066573341 -1.7451331250
H -4.1807268926 3.9368926236 -0.1651943760
H -5.4680639629 2.1539269029 -1.3879510464
H -4.3126677042 1.3168401844 1.3118699644
H -5.6804113428 2.3889504194 1.0322474357
H -6.9511272085 0.5415935038 -0.0048729370
H -5.8074999917 -0.1625108382 2.4758336568
H -4.5009750659 -1.1675354881 0.6252813118
H -6.0220544266 -1.7358752182 -0.0726518007
H -5.7262233867 -0.2684442388 -2.0394355563
H -4.3822818879 -1.3821753653 -1.9024774154
H -2.9784179683 1.8280371548 -3.1456524964
H -3.3478628115 0.1413259610 -3.5153056076
H -4.6522193118 1.3268549367 -3.4085304554
H -2.7647106715 0.2103022058 0.2927318201
H -2.4261188287 -1.7051836217 -1.1824009375
H -1.6526428132 -0.7082832159 -2.3954415932
H 0.0155456608 -1.9264411538 -1.2078327356
H -1.2825535927 -2.1842907674 0.7357270859
H 1.5572358580 1.2513368644 -2.2439837051
H 1.3246878927 -0.4568998808 -2.6206812754
H -0.0148832829 0.6753993428 -2.7950002283
