40
CONF19
C 2.9603175478 0.4635339503 -1.6390620543
N 2.7934149654 1.7143783424 -0.8928244610
C 2.8039049462 2.8384842474 -1.8323648326
C 1.5305045041 1.7055630853 -0.1407705011
C 1.5917093439 0.8239741026 1.1059487159
C 0.2030407865 0.5626860002 1.6911357311
N -0.6450902036 -0.1841111607 0.7523225708
C -0.2181284522 -1.4444472669 0.2888177464
C 0.6625444874 -2.2460646747 1.0251173974
C 1.0980092428 -3.4670651613 0.5182764158
C 0.6368801510 -3.9291019069 -0.7108747243
C -0.2745618141 -3.1630833010 -1.4333526148
C -0.6812503754 -1.9246901234 -0.9461464368
S -1.7617249473 -0.8866786724 -1.9097933631
C -2.6804659606 -0.1664438181 -0.5682425601
C -1.9989825283 0.1465249776 0.6219644473
C -2.7063928746 0.7807709296 1.6517823841
C -4.0365098508 1.1258711574 1.4489464069
C -4.7170829248 0.8264167751 0.2778230163
C -4.0242747215 0.1515505905 -0.7247663712
Cl -4.8926914316 1.9527369237 2.7480988869
H 2.9957426672 -0.3942191337 -0.9610674418
H 3.9033699325 0.4909097069 -2.1944040064
H 2.1358203475 0.2959239474 -2.3603216362
H 2.7187582512 3.7829844191 -1.2850680684
H 3.7467311618 2.8453468869 -2.3893082940
H 1.9741104613 2.7856735192 -2.5641482447
H 0.6937750945 1.3787959721 -0.7905877380
H 1.3094887496 2.7350800920 0.1672753181
H 2.0842321502 -0.1242751096 0.8774163659
H 2.1964043267 1.3142242743 1.8769758710
H -0.2872883769 1.5249587699 1.8630787508
H 0.2777326746 0.0601319998 2.6660868995
H 1.0170809814 -1.9131866802 1.9936537886
H 1.7952979775 -4.0626533334 1.0986803364
H 0.9726798487 -4.8828065179 -1.1038231740
H -0.6572149793 -3.5138998146 -2.3868173185
H -2.2320385718 0.9966611095 2.6005317882
H -5.7563132967 1.1019769862 0.1465641812
H -4.5315397877 -0.1024318576 -1.6500480621
