52
CONF1
C -3.1578086630 3.6175797134 1.6550851570
C -1.8224070709 2.9188969885 1.9198657597
C -0.8638787520 3.8523241745 2.6597080387
C -1.1938773351 2.4553566358 0.5898690013
C 0.1610395166 1.7808596078 0.7372682699
C 1.2658205139 2.2602332832 0.0329017837
C 2.5109599346 1.6484529441 0.1478559311
C 2.6375625993 0.5454215495 0.9818198230
C 1.5541294864 0.0402747706 1.6911477201
C 0.3167647560 0.6595302613 1.5566234345
Cl 4.2090833261 -0.2265136522 1.1518929597
C -2.0737520078 1.4509371878 -0.1238352939
O -2.7363793273 0.5816184795 0.3899813754
O -1.9728035990 1.6050116419 -1.4770100762
C -2.5473012302 0.5449507087 -2.2802188504
C -3.9986938624 0.4764062472 -2.0903373847
N -5.1495911298 0.4447458050 -2.0054565252
C -1.8359546319 -0.7809224752 -2.0753612907
C -0.4494170194 -0.7535256052 -1.9394161926
C 0.2434533580 -1.9486375560 -1.7841663196
C -0.4240593552 -3.1728346281 -1.7906179057
C -1.8066202845 -3.1804919538 -1.9306606476
C -2.5214928199 -1.9924317075 -2.0662974146
O 1.6162763733 -1.8476724757 -1.7097150984
C 2.3320172233 -2.7442407796 -0.9314254764
C 1.8787248518 -3.1701502607 0.3144389010
C 2.6928083527 -3.9999457016 1.0793618910
C 3.9449892864 -4.3945672965 0.6113451922
C 4.3829662410 -3.9552132844 -0.6361594568
C 3.5769029932 -3.1310639546 -1.4161254159
H -3.6147074805 3.9347669332 2.5973327206
H -3.8684554757 2.9626307143 1.1411167286
H -3.0034263558 4.5097749303 1.0369203594
H -2.0029573329 2.0298152168 2.5363913513
H 0.0787075909 3.3549874256 2.9063622207
H -1.3209071134 4.1992818431 3.5914025535
H -0.6351580295 4.7324331532 2.0467121764
H -1.0703898545 3.3237104301 -0.0661325448
H 1.1586121408 3.1256355127 -0.6143844059
H 3.3662821936 2.0279473522 -0.3995298659
H 1.6736410167 -0.8239351278 2.3340924163
H -0.5331439284 0.2599142237 2.1008624294
H -2.3814787448 0.8938457175 -3.3066488177
H 0.1018654322 0.1807465580 -1.9422252512
H 0.1278317232 -4.1002383325 -1.6866679726
H -2.3360089949 -4.1277390429 -1.9327634506
H -3.6018571392 -2.0176766612 -2.1604039121
H 0.9104442632 -2.8506407369 0.6839700428
H 2.3466065684 -4.3300372721 2.0538984610
H 4.5750268054 -5.0384813481 1.2158597459
H 5.3566027840 -4.2562670465 -1.0099366355
H 3.9034084079 -2.7776005991 -2.3885905986
