47
CONF13
C -6.7682961413 -2.0384550742 -2.4163782541
O -6.4154839787 -0.6694513224 -2.0708248150
P -4.9222094044 -0.3186868115 -1.6211466603
S -3.4699946363 -1.0685451867 -2.6690217573
O -4.9986938351 1.2718204352 -1.4870838313
C -4.8699712387 2.1079247552 -2.6725218826
O -4.9674374558 -0.7539880885 -0.0579961790
C -3.8070447797 -0.9498394240 0.6925517676
C -2.9570987597 0.1155957496 0.9719563191
C -1.8407178169 -0.1049543515 1.7670175824
C -1.5720203977 -1.3860639320 2.2580300395
C -2.4362413590 -2.4424834476 1.9680306277
C -3.5662987787 -2.2228346731 1.1856914522
S -0.1707403945 -1.6859346510 3.3283658544
C 1.1936596324 -1.0292950366 2.3755339673
C 1.2368138089 -1.1115135129 0.9810568633
C 2.3412987354 -0.6278004472 0.2916821976
C 3.4068040389 -0.0913666377 1.0030438366
C 3.3885610785 -0.0178714222 2.3892694504
C 2.2697926544 -0.4786794964 3.0758516046
O 4.5278404047 0.3300255600 0.2842429985
P 4.9301305664 1.9082382263 0.1721179046
S 3.4427292565 3.1372371694 0.0093363627
O 5.9990264711 1.8235105747 -1.0131979869
C 5.5517541597 1.5498890433 -2.3707225704
O 5.8547951463 2.2296446477 1.4309636032
C 7.0224785890 1.4012131388 1.7230650829
H -6.1701737902 -2.3746745019 -3.2669284440
H -7.8246999169 -2.0098276308 -2.6813816658
H -6.6123449260 -2.6951371092 -1.5560216751
H -4.9262855979 3.1344651012 -2.3121518601
H -3.9063696214 1.9257013975 -3.1547987951
H -5.6904213802 1.9047260443 -3.3657407217
H -3.1758892093 1.1052280603 0.5855454708
H -1.1769140457 0.7202220241 2.0029048299
H -2.2237551367 -3.4384802279 2.3417904877
H -4.2458000497 -3.0326957207 0.9434696775
H 0.4093271670 -1.5457030827 0.4303283232
H 2.3860701815 -0.6735983565 -0.7912362321
H 4.2286266874 0.4076028891 2.9280480565
H 2.2371108314 -0.4050841308 4.1581184491
H 4.8639987873 2.3329167413 -2.7006044473
H 6.4526126555 1.5543880008 -2.9833728630
H 5.0680136754 0.5705492326 -2.4157764537
H 6.7368478267 0.3468358524 1.7658341086
H 7.7891208984 1.5611561381 0.9623441845
H 7.3774883075 1.7340737057 2.6977619837
