52
CONF50
C 1.2051811456 3.2656567925 1.0519591887
C 1.6786035481 2.1958623185 0.0946299996
C 3.0379314481 2.5068682228 -0.5350621220
C 3.3940674792 1.4735066956 -1.6093544131
C 2.2663849456 1.3431708351 -2.6336152883
C 0.9032304111 1.1716379849 -1.9523150673
O 0.6591699479 2.0967484210 -0.9406175123
O 0.8762779578 -0.2042133039 -1.4536126035
C -0.3634464578 -0.6089684714 -1.0163878368
C -0.5710542536 -0.8715986238 0.3083550146
O -1.7958326520 -1.2284881584 0.7813993415
C -2.8690856631 -1.3320957074 -0.0592749953
C -4.0818507952 -1.6594078221 0.5203972629
C -5.1829501637 -1.7958925726 -0.3257111367
C -5.0817063229 -1.6137683711 -1.7105035441
C -3.8541140105 -1.2872372235 -2.2663290309
C -2.7080886727 -1.1344063585 -1.4389145779
C -1.4258344430 -0.7750274033 -1.9861123558
O -1.2429313762 -0.6013158484 -3.2196817093
O -3.7501238146 -1.1080198681 -3.5929022513
O -6.3606739676 -2.1183490880 0.2617380515
C 0.4383831625 -0.8013206517 1.3612883410
C 1.7004921880 -1.3787132644 1.1660215464
C 2.6863394805 -1.2380900197 2.1287528699
C 2.4134438058 -0.5139028577 3.3039421966
C 1.1499124178 0.0279975648 3.5127239091
C 0.1589422147 -0.1189404003 2.5492982586
O 3.4476625172 -0.4104622242 4.1831512012
O 3.9049079123 -1.8056512287 1.9200615784
O 2.2647102946 2.5552245296 -3.3860382917
O 3.7151230798 0.2145192167 -1.0052256516
O 4.0530780487 2.5383017577 0.4668129972
H 0.2324228857 2.9924110173 1.4707119260
H 1.9198984767 3.3703553598 1.8715326377
H 1.1140269619 4.2271581884 0.5361541009
H 1.7435689157 1.2332773496 0.6203298895
H 3.0040597237 3.5027257512 -0.9918945938
H 4.3033963295 1.7957757664 -2.1280124627
H 2.4550468284 0.4714425822 -3.2752421829
H 0.0930808317 1.2987480550 -2.6768885888
H -4.1716269889 -1.8111168057 1.5888568337
H -5.9502448999 -1.7255834997 -2.3519790415
H 1.9130457031 -1.9633128777 0.2767434917
H 0.9507498655 0.5773208178 4.4287189612
H -0.8162989265 0.3286076124 2.7033929658
H 3.1802085795 0.1053053634 4.9559177914
H 4.4752130551 -1.6171628663 2.6798492521
H 1.6501260825 2.4511028461 -4.1238235090
H 2.8874437236 -0.2279489782 -0.7629076747
H 4.2701966834 1.6118861139 0.6557877100
H -7.0540241341 -2.1911146889 -0.4090561418
H -2.7899668556 -0.8837094339 -3.7618553417
