29
CONF8
C -3.2212862473 -1.3152432723 -0.2727839235
C -2.1753209328 -0.4995951473 0.4375239758
O -2.5683832381 0.9117978334 0.4212803921
C -1.4591418517 1.6160362148 0.0398295274
C -1.2822687676 2.9844093724 0.0215979634
C -0.0512723366 3.4547686520 -0.4614650607
C 0.9426486006 2.5825720912 -0.8966308213
C 0.7290205359 1.2013523703 -0.8713069061
C -0.4812663395 0.7324245602 -0.4022570138
O -0.9221769933 -0.5534674956 -0.3318518299
O 1.6893649935 0.3365057558 -1.3773319582
C 2.2775237613 -0.5297289239 -0.4617695728
O 2.0992927838 -0.4565992520 0.7420053505
N 3.0527764314 -1.4168859737 -1.1007593639
C 3.8533773095 -2.3850240678 -0.3626640483
C -1.8874050374 -0.9165266367 1.8619067051
H -4.1646824347 -1.2547874841 0.2754142783
H -2.9039734697 -2.3602586774 -0.3094326007
H -3.3644481106 -0.9405744821 -1.2887612880
H -2.0583009783 3.6601819510 0.3620453822
H 0.1322046147 4.5233930159 -0.4893248634
H 1.8944203399 2.9552163755 -1.2599035114
H 3.1458912903 -1.3498583546 -2.1020022097
H 4.3224595574 -3.0581980092 -1.0812561613
H 4.6347007528 -1.8919557599 0.2264119378
H 3.2218456799 -2.9704909195 0.3117886353
H -2.7984357382 -0.8330903688 2.4598663171
H -1.1137809454 -0.2726703596 2.2899742351
H -1.5433839334 -1.9537033204 1.8781560294
