29
CONF23
C 1.9606036948 -2.8226109571 -1.1340865637
N 2.6402212779 -1.6057424139 -0.6983822256
C 2.1152499531 -0.3700567732 -0.7339615540
O 2.6573173265 0.6569741209 -0.3570316064
O 0.8444302042 -0.4049890170 -1.2788464091
C 0.1177034099 0.7837999735 -1.2471601096
C 0.3420034004 1.7603287048 -2.2054747584
C -0.4413903647 2.9110710091 -2.1919256526
C -1.4336067268 3.0686296705 -1.2271100648
C -1.6472920047 2.0768668992 -0.2732398146
C -0.8693762319 0.9197276972 -0.2722213850
C -1.0612125242 -0.1832665841 0.7289968483
O 0.0710779833 -0.2557779804 1.6077916014
C -0.4198695144 -0.7957216474 2.8555030106
C -1.9497779105 -0.8179993927 2.6795276279
O -2.1713149135 0.0591994530 1.5622511862
H 1.7332431821 -2.7935613765 -2.2045283651
H 2.6249139088 -3.6656463290 -0.9391363782
H 1.0292706716 -2.9727759262 -0.5792823872
H 3.5818085547 -1.6683508605 -0.3464065876
H 1.1204680694 1.6138090149 -2.9468643527
H -0.2755139869 3.6821603120 -2.9373358423
H -2.0463236028 3.9641677259 -1.2186631760
H -2.4224046065 2.1952065111 0.4750441553
H -1.1811994215 -1.1592040559 0.2229395846
H -0.0995729953 -0.1277199842 3.6602371090
H -0.0144272849 -1.7995324355 3.0229810852
H -2.4953176582 -0.4220610990 3.5373438155
H -2.3097126944 -1.8269235820 2.4390409072
