56
CONF59
C 0.3431037647 1.4452913457 0.1122717200
C -1.1402285333 1.1301499425 0.0232477444
N -1.3841593601 -0.2811693676 0.3599555439
C -0.6205221024 -1.1137692822 -0.5825037852
C 0.8629223629 -0.7980376564 -0.4912966141
N 1.1100580323 0.6099219017 -0.8183427343
C 2.5452904081 0.9152997705 -0.7423058667
C 2.8701547811 2.1857936456 -1.4718890462
C 4.0454978101 2.5524137342 -2.0086610435
C 5.3245077769 1.8392787984 -1.9996148645
C 6.2436471960 2.1071720724 -3.0299836824
C 7.4675016774 1.4528660948 -3.0919787741
C 7.8133639076 0.5218012426 -2.1134486530
C 6.9270903513 0.2642688345 -1.0698661910
C 5.6985434930 0.9147160317 -1.0095091750
C -2.8191338768 -0.5992182211 0.2919951820
C -3.6344331182 0.2935810296 1.2155879793
C -4.8000589538 0.8989778137 0.7472715168
C -5.5920930885 1.6815567015 1.5857413247
C -5.1847193107 1.8483234964 2.8966070976
C -4.0304646464 1.2699437540 3.4008209361
C -3.2605127143 0.4864006848 2.5486378000
F -5.9440055686 2.6144688550 3.7240854774
C -3.0915903369 -2.0530347513 0.6491964107
C -4.0758203368 -2.7578773775 -0.0442460098
C -4.4001036535 -4.0687802546 0.2979270496
C -3.7121995668 -4.6575975856 1.3436893282
C -2.7231478944 -3.9966005001 2.0536343121
C -2.4205978111 -2.6860040243 1.6988976309
F -4.0131004972 -5.9390725947 1.6842665497
H 0.4944447749 2.5027496000 -0.1300638443
H 0.6864180732 1.2890894812 1.1551355524
H -1.5075390342 1.3627365408 -0.9958715617
H -1.6801291219 1.7700281851 0.7274148361
H -0.7744461515 -2.1698657437 -0.3422314208
H -0.9668962252 -0.9494348754 -1.6220970674
H 1.4071503666 -1.4289221628 -1.2037350228
H 1.2251970396 -1.0458906327 0.5268757931
H 2.8762547397 0.9695826025 0.3162735652
H 3.1007582119 0.0823123798 -1.1934502097
H 2.0321178680 2.8631339828 -1.6207000873
H 4.0564566372 3.4844254966 -2.5722170255
H 5.9810887646 2.8354325352 -3.7926630024
H 8.1554115557 1.6716645352 -3.9030750956
H 8.7705102553 0.0117453737 -2.1570601989
H 7.1973032601 -0.4415533944 -0.2902032476
H 5.0442233919 0.7260707365 -0.1670158381
H -3.1998493931 -0.4376650705 -0.7353118489
H -5.0983407070 0.7612974964 -0.2882317135
H -6.4996219966 2.1575607931 1.2305439298
H -3.7470037584 1.4324942033 4.4351580031
H -2.3499648306 0.0302163251 2.9226079074
H -4.6018962115 -2.2776854575 -0.8647838265
H -5.1627593355 -4.6246951018 -0.2365565391
H -2.2032228152 -4.5006942359 2.8612440082
H -1.6404571636 -2.1551977374 2.2346390964
