55
CONF26
C 1.1890534962 2.2384788474 0.1608155278
C 2.5833112033 1.8793311862 0.6517674249
N 2.5456054445 0.6092019769 1.3842367796
C 1.6239561647 0.7283784253 2.5219865391
C 0.2271086167 1.0878420194 2.0355895959
N 0.2699930358 2.3484539770 1.2916802548
C -1.0339591215 2.9070805513 0.9380867716
C -1.8049879803 2.2490022461 -0.2384822425
C -2.3880069380 0.9161259618 0.0875646586
C -2.0902207651 -0.2928026627 -0.4322430171
C -2.6998438851 -1.5128424262 0.1326435309
C -4.0658635583 -1.5839191060 0.4329959327
C -4.6117065859 -2.7118436900 1.0339973568
C -3.7995996176 -3.8058997063 1.3288642588
C -2.4471446642 -3.7740639068 1.0087793091
C -1.9044199513 -2.6347242965 0.4121864487
S -0.1548575453 -2.6211284252 0.0811349354
C -0.0888774911 -1.5095234790 -1.2988708697
C -1.0628500443 -0.5075712047 -1.4687874601
C -1.0061247084 0.2695227406 -2.6275300809
C 0.0448007046 0.1292521852 -3.5295188341
C 1.0508766829 -0.8091919751 -3.3061565640
C 0.9672342284 -1.6454723217 -2.2024780489
C 0.0976109510 1.0414577555 -4.7143908635
F 0.9444323324 0.6047330223 -5.6735926747
F 0.5132671897 2.2949429380 -4.3696217813
F -1.1190718764 1.1969616500 -5.2964863703
C 3.8851754022 0.1790452864 1.8042639977
C 3.9084076894 -1.3282117176 2.0263655566
O 3.4204788141 -2.0069834968 0.8630685416
H 0.8711551256 1.4635496067 -0.5649520283
H 1.2231617327 3.1991858027 -0.3682196432
H 3.2524806371 1.7686463079 -0.2091501540
H 2.9735933155 2.6983390890 1.2870000827
H 1.5785054745 -0.2276835468 3.0545978258
H 1.9791719310 1.4993351571 3.2333964746
H -0.1583866903 0.2516966653 1.4279098981
H -0.4378411202 1.2085767833 2.8992435646
H -1.6621577927 2.8977112034 1.8380689693
H -0.8767527742 3.9586087603 0.6619772304
H -1.1535305748 2.2151997768 -1.1129598951
H -2.6270477353 2.9352556066 -0.4866886201
H -3.1043714775 0.9244219267 0.9098690102
H -4.6983347776 -0.7364651603 0.1867624244
H -5.6719047478 -2.7415423154 1.2633832853
H -4.2199828770 -4.6929781586 1.7913418718
H -1.8132067418 -4.6301170157 1.2184236842
H -1.7942158063 0.9894333960 -2.8196469780
H 1.8750689002 -0.9154214520 -4.0017318986
H 1.7172832987 -2.4147613380 -2.0480939246
H 4.2283315904 0.7033897795 2.7153171144
H 4.5852098034 0.4209798294 0.9955589873
H 4.9372834780 -1.6601879691 2.1992562623
H 3.3131495333 -1.6065354923 2.9092337405
H 2.6895606535 -1.4442696344 0.5535289004
