38
CONF8
C 5.2299795108 1.2667222706 -1.2766972866
C 3.9937577762 0.6015133533 -0.7727776398
N 3.0085813895 0.3828201378 -1.6580522306
C 1.9409359325 -0.2475251806 -1.1555385974
N 1.7987807650 -0.6548781369 0.1100547781
C 2.8408266204 -0.3760342396 0.8952359946
N 3.9622366857 0.2470546974 0.5178618031
O 2.8063353994 -0.7305106252 2.1733170570
C 1.6197046169 -1.4179374687 2.6513864973
N 0.9167829192 -0.4724023641 -2.0516017207
C -0.3443717706 -1.0514916562 -1.8907998139
O -1.1356080051 -1.0655132436 -2.8195050220
N -0.5953766852 -1.5953571771 -0.6478913717
S -2.1632679665 -2.0631598109 -0.1881580663
O -2.0614514273 -2.3046510731 1.2531307390
O -2.6092433981 -3.1397121574 -1.0741296085
C -3.2144674656 -0.6540302567 -0.5250740035
C -3.1016225385 0.6147737285 0.0202308703
S -4.3985344859 1.6166592161 -0.5553766497
C -5.0555253903 0.3365949297 -1.4961516087
C -4.3224324022 -0.8147705017 -1.3879368108
C -2.0769378384 1.1613405687 0.9168996005
O -1.0926376070 0.5525379021 1.2895893531
O -2.3608890552 2.4275152592 1.2654024957
C -1.3900806909 3.0667373591 2.1332300583
H 5.9089676602 0.4965665158 -1.6630847728
H 4.9949854880 1.9464484471 -2.0971344002
H 5.7414497122 1.7930521536 -0.4699091967
H 1.4890676224 -2.3613078181 2.1152722627
H 0.7389993372 -0.7844641058 2.5247738658
H 1.8136907538 -1.6023466467 3.7068279604
H 1.0793368952 -0.1181088607 -2.9860658576
H 0.0476115642 -1.3412202860 0.1147957675
H -5.9480719252 0.4997396985 -2.0861476636
H -4.5565951052 -1.7372741218 -1.9011029797
H -1.7764769733 4.0703606752 2.3023914429
H -0.4164522906 3.1031373629 1.6391086236
H -1.3119889402 2.5166568653 3.0736261309
