20
CONF39
C -3.0813647053 0.9242878089 -0.4283783229
O -1.6294340528 1.1008417854 -0.4200088344
P -0.7213874097 -0.0902448236 0.0963009705
O -0.9435829273 -1.4423223978 -0.4664646463
O -0.7916895212 0.0731999289 1.6710855843
C -0.2454842161 -0.9713419335 2.5351833117
O 0.7655112902 0.5152823793 -0.2437527845
C 1.4578149686 0.0698146649 -1.3560568263
C 2.9699549073 0.1675852628 -1.0732264263
Cl 3.4594670730 1.8176880774 -0.6178689919
Cl 3.8955499866 -0.3957408738 -2.4869368582
Br 3.3337327796 -1.0666563776 0.4393125699
Br 0.9682154273 1.1771529557 -2.9525500392
H -3.4467393068 0.8033321571 0.5944244592
H -3.4824440472 1.8364942834 -0.8672733548
H -3.3475557686 0.0594331908 -1.0401937963
H 0.8434559058 -0.9870822627 2.4487378186
H -0.5410043835 -0.6964286613 3.5466504530
H -0.6690898149 -1.9406298961 2.2641083299
H 1.2060740056 -0.9546656651 -1.6430926214
