49
CONF57
C -5.1869892709 0.2329506649 0.0263753584
C -4.3540335819 -0.9542830071 0.4619088315
C -2.8867643374 -0.7496891601 0.8956721662
C -3.2575061742 -1.4761736258 -0.4176314392
C -2.9409535706 -2.9588417632 -0.4447031704
C -2.9658709451 -0.8222630034 -1.7516806238
C -2.2377761843 0.5588404339 0.9114283678
O -2.3941480701 1.5059859587 0.1688455498
O -1.3388051931 0.6079520324 1.9623932633
C -0.5730749627 1.8299199436 2.0328015091
C -0.0800284789 1.9050475050 3.4089905562
N 0.3385433582 1.9968374722 4.4813958967
C 0.5778225224 1.8413050668 1.0454752594
C 1.4005007771 0.7226394274 0.9438485203
C 2.4515358607 0.7351050254 0.0327061875
C 2.6929039662 1.8523101780 -0.7677926239
C 1.8677120586 2.9644379440 -0.6420692264
C 0.8070830292 2.9682311856 0.2599853350
O 3.1817719305 -0.4285193342 -0.0707512165
C 4.5071704402 -0.3577447895 -0.4812365411
C 5.4118764047 0.4900865588 0.1525156477
C 6.7450154327 0.4694103513 -0.2453680187
C 7.1691085208 -0.3935923482 -1.2553308879
C 6.2510606381 -1.2415834131 -1.8701953936
C 4.9114532952 -1.2256693463 -1.4883164945
C -5.1549057285 -1.9073654764 1.3293605810
H -6.0336080534 -0.1267968039 -0.5696179058
H -4.6333004657 0.9619902955 -0.5611973959
H -5.5918725410 0.7449805180 0.9061492027
H -2.5526483690 -1.4026588382 1.6950677383
H -1.9175146002 -3.1111117602 -0.8035904941
H -3.0272119951 -3.4346760705 0.5326824186
H -3.6193585590 -3.4705095345 -1.1374975904
H -3.6156692521 -1.2651615528 -2.5153016193
H -1.9278707309 -1.0191224421 -2.0416848999
H -3.1151075900 0.2552892539 -1.7523127133
H -1.2241927371 2.6934249799 1.8529203388
H 1.2320312731 -0.1583288253 1.5547934856
H 3.5088291493 1.8481435818 -1.4817766989
H 2.0466346094 3.8323427326 -1.2683751322
H 0.1567332322 3.8327580823 0.3438039305
H 5.0749186935 1.1519110274 0.9438467052
H 7.4569976092 1.1260789140 0.2447086712
H 8.2108596310 -0.4064281538 -1.5581936841
H 6.5739139646 -1.9176224259 -2.6556215802
H 4.1813036108 -1.8762043887 -1.9582341415
H -4.5517094534 -2.7083956553 1.7581315951
H -5.6160364829 -1.3547872908 2.1547441649
H -5.9588216590 -2.3604491183 0.7375977052
