49
CONF44
C -0.0186181898 -1.3388749652 0.9245320817
C 0.8708601118 -1.9378186313 -0.1606977539
N 0.7627898643 -1.1839278593 -1.4119490336
C -0.6184011904 -1.1692305217 -1.8978428311
C -1.5564377794 -0.5403709741 -0.8725060279
C -1.4915757958 -1.2627408595 0.4842912746
C -2.3273120255 -0.5366115840 1.5237355553
C -3.4084918334 -1.1508703637 2.1585468460
C -4.1669364001 -0.4711507934 3.1112488717
C -3.8319179915 0.8369191024 3.4246432349
C -2.7635593481 1.4806257491 2.8135304651
C -2.0207029431 0.7847831604 1.8662014353
Br -4.8707679268 1.7851928986 4.7349297911
O -2.0410851339 -2.5876600614 0.3666107677
C 1.6958053076 -1.6704791359 -2.4312018432
C 2.0142708931 -0.5878314780 -3.4579100235
C 2.5587241764 0.6641382022 -2.7614927116
C 1.5022962125 1.3608738796 -1.9257448879
O 0.4880177253 1.7922592211 -2.4736357721
C 1.7568985460 1.6636544667 -0.4845797447
C 2.7379347366 1.0079088187 0.2701579937
C 2.9093978648 1.2913902567 1.6194056901
C 2.0940950037 2.2525784290 2.1951683798
C 1.1212033302 2.9375423333 1.4842838875
C 0.9578589661 2.6297804716 0.1403099769
F 2.2565842428 2.5361286532 3.5101359008
H 0.3393127244 -0.3288042016 1.1506556223
H 0.0522170045 -1.9370959746 1.8395801199
H 1.9134436576 -1.9050318470 0.1762688863
H 0.6253144178 -3.0090790671 -0.3166721119
H -0.6656069137 -0.5816462875 -2.8198115139
H -0.9512453827 -2.1954702709 -2.1601861588
H -1.2695655165 0.5075676618 -0.7368166211
H -2.5872094616 -0.5640277268 -1.2430005692
H -3.6706790266 -2.1722661304 1.9138821432
H -5.0038258159 -0.9619156764 3.5950638690
H -2.5099550085 2.5040459317 3.0656070337
H -1.1872657411 1.2958131392 1.3953336665
H -1.5535852047 -3.0578858851 -0.3208267167
H 1.3086786853 -2.5769771152 -2.9331542813
H 2.6275385049 -1.9536363484 -1.9252953635
H 1.1296483010 -0.3259095524 -4.0482256661
H 2.7619944321 -0.9727586990 -4.1596032070
H 3.4479893039 0.4092422586 -2.1812107822
H 2.8652400468 1.3988781715 -3.5169021897
H 3.3558200166 0.2394432457 -0.1787162099
H 3.6534285084 0.7776868106 2.2183508195
H 0.5101395047 3.6858549355 1.9777434412
H 0.1972424340 3.1377640116 -0.4425666251
