65
CONF32
C 5.4460755709 0.5938381523 1.6874716394
O 4.0910102302 0.6303932535 2.1252195275
C 3.3966990199 -0.5488738350 2.1273997376
C 2.0774148442 -0.4730735218 2.5809684227
C 1.2827068671 -1.6086203117 2.5920071296
C 1.7728429163 -2.8474427583 2.1661781221
C 3.1034864898 -2.9085692959 1.7546298535
C 3.9169663920 -1.7783216972 1.7208138741
C 0.8881530335 -4.0644470282 2.1223040807
C 0.6289050904 -4.6322691095 0.7031801480
N -0.0282850711 -3.7773173965 -0.2763480516
C 0.8270907594 -2.7646975719 -0.8960757217
C 0.1131034757 -2.1559410364 -2.1017561059
C -1.2314838489 -1.5462412976 -1.7030601746
C -2.0712501203 -2.5982790907 -0.9700873988
C -1.2960288621 -3.2148716059 0.1889330565
N -0.9810298232 -0.3833262486 -0.8354919133
C -1.9344020877 0.5870063537 -0.7213986382
N -3.1764433053 0.5127882794 -1.1517623065
C -3.7471018537 1.7204585715 -0.7794373861
C -5.0387489859 2.1969595536 -0.9846620862
C -5.3508093663 3.4748116776 -0.5252667121
C -4.4013149976 4.2698062724 0.1262556550
C -3.1012178767 3.8111264043 0.3448104128
C -2.8028847371 2.5362477762 -0.1103991927
N -1.6419375864 1.7741463976 -0.0633930218
C -0.3452935395 2.1515408053 0.4565877316
C 0.6984517700 2.3348110362 -0.6282203434
C 0.3454935549 2.8511165156 -1.8768286024
C 1.3029236444 3.0238429831 -2.8695550305
C 2.6143298430 2.6718209632 -2.5917861322
C 2.9990482847 2.1544323658 -1.3668741588
C 2.0273814381 1.9858528937 -0.3848069494
F 3.5497475150 2.8329047997 -3.5541758989
H 5.8076366230 1.6211944229 1.7488738393
H 5.5228112984 0.2401198425 0.6505772988
H 6.0569465801 -0.0469114431 2.3362959392
H 1.7006662036 0.4816629903 2.9342782697
H 0.2549181104 -1.5320122423 2.9363275037
H 3.5224016631 -3.8602894643 1.4378741668
H 4.9431906649 -1.8722479008 1.3875119732
H 1.3416037335 -4.8750379167 2.7088660454
H -0.0685292853 -3.8354408553 2.6037145898
H 0.0121105547 -5.5346859946 0.8263081146
H 1.5826609946 -4.9597464711 0.2693294361
H 1.7569289142 -3.2479107745 -1.2202448257
H 1.1179657730 -1.9632129909 -0.1919190382
H 0.7513484125 -1.3971710720 -2.5739170527
H -0.0748378701 -2.9409026946 -2.8420384757
H -1.7761381447 -1.2124800862 -2.5965379906
H -2.9969723171 -2.1394876959 -0.6104452349
H -2.3373531072 -3.3819555584 -1.6891077294
H -1.1491783602 -2.4417836243 0.9681282226
H -1.8871018844 -4.0223356581 0.6400286587
H -0.0292757536 -0.0417363180 -0.8435243243
H -6.3519201219 3.8650545634 -0.6772835233
H -4.6771158115 5.2615114881 0.4686594926
H -2.3689346819 4.4348635999 0.8480414812
H -0.4751176518 3.0814709056 1.0216368549
H -0.0004892191 1.3911062425 1.1708163028
H 1.0460208879 3.4207716819 -3.8451127243
H 4.0349506068 1.8859507687 -1.1934812815
H 2.3175476150 1.5731865699 0.5769128893
H -0.6896581165 3.1109799522 -2.0784488122
H -5.7733119064 1.5823694070 -1.4939310667
