44
CONF38
C -2.6405731163 -4.0967038583 0.7765302180
C -2.0598082284 -2.9123794279 0.0429375795
C -2.5005127407 -2.7660134005 -1.4245385356
O -2.7519653070 -1.3609824669 -1.5915006960
C -2.3898295484 -0.7169597129 -0.3656246204
O -2.5562714997 -1.6972373928 0.6319279649
C -3.4130523584 0.3956154047 -0.1027592977
N -3.2711499775 1.4753890435 -1.0573776370
C -3.6483499083 1.5198595327 -2.3566247565
N -3.2188752682 2.6355139233 -2.9220124342
C -2.5558129802 3.2467558562 -1.9003197274
N -2.5523323861 2.5835758147 -0.7517418526
C -0.9565824405 -0.1907078521 -0.4556690788
C -0.3385873422 -0.0959665272 -1.7055433539
C 0.9447239168 0.4032831357 -1.8620491259
C 1.6415314754 0.8353517222 -0.7399687921
C 1.0571938194 0.7812785675 0.5215060272
C -0.2305509113 0.2756023200 0.6454066922
Cl -0.9072049238 0.2810392967 2.2661698133
O 2.8873474794 1.3796904482 -0.9522078625
C 3.8422789593 1.2997216695 0.0442456584
C 4.1219858849 0.1009710220 0.6953639543
C 5.1434768881 0.0543856441 1.6355117924
C 5.8777856824 1.2049532415 1.9034687711
C 5.6084827766 2.4000890176 1.2477894571
C 4.5791991796 2.4463472101 0.3142471958
Cl 7.1684409821 1.1432376579 3.0881592063
H -2.2936915211 -5.0283046144 0.3186983943
H -3.7333158031 -4.0692049381 0.7356065763
H -2.3260255653 -4.0902105088 1.8229314031
H -0.9608967455 -2.9123352682 0.1079346458
H -1.7253984272 -3.0982914634 -2.1257394865
H -3.4327656194 -3.3080595938 -1.6240240507
H -4.4116075500 -0.0431524551 -0.1803999358
H -3.2650907656 0.8053772527 0.8971487138
H -4.2194192607 0.7302793216 -2.8254568280
H -2.0671496717 4.2069571536 -1.9993824041
H -0.8954638127 -0.4253264228 -2.5747498019
H 1.4090244162 0.4715869155 -2.8389256780
H 1.5858212486 1.1430060542 1.3947091645
H 3.5448735554 -0.7886576803 0.4679889878
H 5.3746524698 -0.8710093010 2.1498052013
H 6.1915074430 3.2864788176 1.4680414509
H 4.3439565126 3.3651570368 -0.2110353302
