52
CONF273
C 1.5963646372 -2.4690737563 -1.7530512334
C 1.6424576884 -0.9722835250 -1.5441419895
C 2.6780162292 -0.2690225008 -2.4240708649
C 2.7370282701 1.2207467225 -2.0984342702
C 2.9622629278 1.4379996698 -0.5925206522
C 2.0586793750 0.5632560209 0.2792380725
O 1.9826556911 -0.7657368642 -0.1453025190
O 0.7607368348 1.2077220854 0.3012815844
C -0.1010050239 0.7510137247 1.2653413018
C -1.2733078744 0.1320433901 0.9045644552
O -2.1508070591 -0.3050129537 1.8525118892
C -1.8940733952 -0.1583332059 3.1835549259
C -2.8367939874 -0.6734257005 4.0592908068
C -2.6056762105 -0.5042322116 5.4252739595
C -1.4709876151 0.1588191437 5.9093641840
C -0.5450571679 0.6639666574 5.0122708547
C -0.7386406799 0.5071635383 3.6118515034
C 0.2068024186 1.0162885981 2.6532784499
O 1.2409075937 1.6490376584 3.0025730274
O 0.5476333616 1.3028482961 5.4649829581
O -3.4717140322 -0.9696196251 6.3582219324
C -1.7443802065 -0.1496025876 -0.4444693475
C -1.3592253261 0.6618620937 -1.5231749524
C -1.7269247794 0.3300208077 -2.8133872151
C -2.5386696665 -0.7907032135 -3.0536756542
C -2.9638141490 -1.5701369423 -1.9804179159
C -2.5678312813 -1.2607158789 -0.6871220653
O -2.9048448335 -1.1342721252 -4.3141599678
O -1.3268127452 1.0382961332 -3.9136556368
O 4.2937550484 1.0523707495 -0.2406850886
O 1.5004916927 1.8008454513 -2.5437824223
O 2.4031437497 -0.4728980147 -3.8092235997
H 0.8557203269 -2.9180614685 -1.0847420268
H 1.3133186957 -2.6913752140 -2.7843189482
H 2.5754028905 -2.9164705613 -1.5509119431
H 0.6558907869 -0.5345346658 -1.7360048678
H 3.6629439250 -0.7079226816 -2.2285709008
H 3.5770471768 1.6746434694 -2.6449246887
H 2.7752638011 2.4912936900 -0.3400997873
H 2.4599745406 0.5228961945 1.2953007242
H -3.7202791978 -1.1793778711 3.6856682993
H -1.3220897673 0.2760455616 6.9767032018
H 1.0535157337 1.5811958583 4.6468082161
H -4.2204932083 -1.4054528076 5.9269660847
H -0.7350218363 1.5308773886 -1.3652255291
H -3.5845411446 -2.4379127059 -2.1784815975
H -2.8780055214 -1.8983382392 0.1320239996
H -2.4940946572 -0.5172081860 -4.9392506825
H -0.5525931152 1.5743512022 -3.6808857384
H 4.9049329892 1.6613739849 -0.6748369440
H 1.6213446402 2.7571015725 -2.5988166074
H 1.6613928636 0.1076431399 -4.0347468084
