20
CONF56
C 0.3067699943 0.0607606349 -0.7437032707
O 1.3039716233 1.0502133345 -1.0999691984
C 2.3487654590 0.9876423308 -0.2024699563
O 3.2966695274 1.7427781582 -0.2817860727
C 2.0901063828 -0.0845080004 0.7371463099
O 3.0037825164 -0.3697490345 1.6990791825
C 0.9100366139 -0.6604800650 0.4235684800
O 0.3568495832 -1.7227911398 1.0133686473
C -1.0129085465 0.8089014557 -0.4724961143
O -1.5652282909 1.2642630276 -1.7065489728
C -2.0418450068 -0.0589581179 0.2279374599
O -1.9727037940 -1.3992485745 -0.3110493255
H 0.1704278266 -0.6053265176 -1.6043134393
H 2.6660328750 -1.0832713240 2.2586545321
H -0.5124360601 -1.9028899776 0.5747560829
H -0.7850869991 1.6582316669 0.1886689452
H -0.9591242732 1.9149581357 -2.0850208066
H -3.0356202584 0.3713120634 0.0676473950
H -1.8313560894 -0.0765542565 1.3048753728
H -2.7371028824 -1.8952839007 0.0116544473
