59
CONF6
C 8.1754786617 -2.6633944998 -0.1980088792
C 6.7158523866 -2.7764357343 0.2381343518
C 5.8484529577 -1.6428504968 -0.3082616671
C 4.3853813273 -1.7491634778 0.1189994368
C 3.5302657779 -0.6099419590 -0.4328161986
C 2.0687890907 -0.6643927245 0.0017240925
C 1.2723974463 0.4966170334 -0.5081422764
C 0.5644358241 1.3073451631 0.2793295447
C -0.3423197443 2.3981520565 -0.1807801852
C -0.2174026920 3.7270385579 0.6304293189
C -1.5488545054 3.8451516017 1.3915889813
C -2.5631259474 3.2019344628 0.4471561587
C -1.8230126575 1.9410125956 -0.0029558157
C -2.3816092186 1.2026290530 -1.2247667598
C -3.4908328872 0.2631468862 -0.8601756246
C -3.5153416883 -1.0276203733 -1.1972982908
C -4.5457235908 -2.0226685928 -0.7654260349
C -3.9270823633 -3.2328734311 -0.0441620424
C -3.1577453014 -2.8579459255 1.2271322236
C -1.7973284830 -2.2265564219 1.0483418741
O -1.3478535864 -1.3647692096 1.7864603289
O -1.0905361885 -2.7671239785 0.0471502029
O -2.7800291566 4.0378246018 -0.7137492705
O 0.0103608378 4.8515904668 -0.2316081963
O 1.4584527416 -1.9192082782 -0.4352580822
H 8.2595406314 -2.6894483292 -1.2902380015
H 8.7797576542 -3.4822129160 0.2051937854
H 8.6136796948 -1.7202023435 0.1470239111
H 6.6566007256 -2.7781942147 1.3346451198
H 6.3033444926 -3.7379476310 -0.0952805657
H 5.9074954551 -1.6392472290 -1.4060612927
H 6.2584054514 -0.6792320351 0.0260178943
H 4.3232142206 -1.7469191091 1.2162314849
H 3.9774786197 -2.7106641629 -0.2153128562
H 3.5711693485 -0.6032409422 -1.5323631987
H 3.9379205963 0.3540040425 -0.1013102571
H 2.0047917089 -0.7027699724 1.0952424253
H 1.2763234001 0.6476730775 -1.5896793318
H 0.5687252259 1.1248944995 1.3565071249
H -0.1485820313 2.6213431923 -1.2364820097
H 0.6421392778 3.7047767900 1.3069616432
H -1.5047671405 3.2568268769 2.3166087295
H -1.7851224835 4.8811039316 1.6545794180
H -3.5247309247 2.9755092599 0.9264313987
H -1.8539898194 1.2562926672 0.8558448898
H -1.5726084334 0.6258300770 -1.6901635065
H -2.7118720339 1.9471770678 -1.9604437896
H -4.2948899645 0.6661095027 -0.2402443064
H -2.7008464351 -1.4210375788 -1.8089154452
H -5.2779693275 -1.5363851398 -0.1086197483
H -5.0948751216 -2.3982147390 -1.6402088308
H -4.7312979544 -3.9230057235 0.2330254360
H -3.2660235713 -3.7742229566 -0.7289743846
H -2.9723767958 -3.7674544801 1.8157998196
H -3.7467606620 -2.1868515356 1.8594293506
H -0.1942373499 -2.3382412657 -0.0121642288
H -3.2540508682 4.8254058972 -0.4172139843
H -0.7762807930 4.9111208226 -0.7952652781
H 1.5517032134 -1.9709733375 -1.3976606886
