47
CONF6
C -4.8865795700 -2.3612996135 2.9282358014
O -4.9605406935 -1.0115243582 2.3841585676
P -5.1976779677 -0.7901675305 0.8202901159
S -4.1204142769 -1.8388529079 -0.4111612500
O -6.7853439653 -0.9300692505 0.7160551645
C -7.4384124894 -0.8999140431 -0.5852358522
O -5.0267731728 0.8201838551 0.7138180219
C -3.7936648572 1.4153258525 0.4372753361
C -2.7622369864 1.3631201240 1.3694149593
C -1.5669695545 2.0105167028 1.0869765340
C -1.4050331502 2.6837547865 -0.1277061059
C -2.4513247529 2.7262774734 -1.0501765887
C -3.6579987470 2.0940510258 -0.7638069428
S 0.1022067415 3.5746750599 -0.4949439129
C 1.3679719051 2.3462924519 -0.1932959097
C 2.5955428364 2.7859212447 0.3088913436
C 3.6375481204 1.8827901798 0.4914581524
C 3.4301042887 0.5445741602 0.1923129285
C 2.2120851599 0.0869883356 -0.2954249852
C 1.1813595154 0.9960013316 -0.5011692493
O 4.4659358468 -0.3617351884 0.4478080466
P 5.3576445467 -0.9842012215 -0.7549765441
S 5.8272894913 0.2408171809 -2.1893600777
O 4.4859016169 -2.2663567328 -1.1399166368
C 4.8406349414 -3.0717955945 -2.3009061997
O 6.5539882104 -1.6459750273 0.0709676740
C 7.6719067308 -0.8301882038 0.5240520404
H -5.8347538094 -2.8819189913 2.7711543594
H -4.6973584893 -2.2351397657 3.9935827241
H -4.0657923601 -2.9077434600 2.4574554610
H -7.2498529200 0.0578894047 -1.0777940710
H -7.0773326392 -1.7257128453 -1.2030208067
H -8.5021692561 -1.0151905927 -0.3803464189
H -2.9002250991 0.8377713593 2.3082589164
H -0.7597547718 1.9889633530 1.8116248641
H -2.3239641992 3.2419509795 -1.9960987289
H -4.4801880040 2.1105091554 -1.4710316263
H 2.7406115110 3.8317186194 0.5599801632
H 4.5975023686 2.2083534201 0.8774571015
H 2.0745616768 -0.9653175523 -0.5194370830
H 0.2330437734 0.6479308828 -0.8963938213
H 4.0846190623 -3.8543227931 -2.3536992404
H 4.8155000524 -2.4561219512 -3.2032762348
H 5.8318376747 -3.5117303103 -2.1639279845
H 7.3183027299 -0.0575650872 1.2122091438
H 8.3428977412 -1.5158683507 1.0403515893
H 8.1753640943 -0.3776653605 -0.3336367260
