42
CONF10
C -3.0282058483 -1.3012979588 1.8662664167
C -2.4673969766 -0.3532114553 0.8634362326
C -3.1538757241 0.4304208010 -0.0142960089
C -2.2033535777 1.1809504976 -0.8327371681
C -0.8906341914 0.8301822952 -0.4351308188
C -1.0220265255 -0.1799317317 0.6317742343
C -0.0880631891 -0.8644973027 1.3362742865
C 1.3514103364 -0.9504008615 1.1206252713
C 1.9022218782 -1.0647036691 -0.1667961892
C 3.2704273639 -1.2049859640 -0.3425532402
C 4.1034309841 -1.2148694620 0.7732282758
C 3.5867208077 -1.1451684659 2.0595036653
C 2.2136463979 -1.0246397521 2.2263825518
S 5.9053307283 -1.4407251070 0.5823327141
O 6.4768774898 -1.6174496774 1.9744261464
C 6.2519203011 0.3125389742 0.1068216709
C 0.1920893623 1.5136642173 -0.9720802608
C -0.0228944078 2.4902574428 -1.9475203627
C -1.3198595346 2.7634891863 -2.3525870164
C -2.4360126064 2.1369850166 -1.8122943549
F -1.5101674255 3.6983927719 -3.3105010591
C -4.6363162190 0.5556197797 -0.1805705326
C -5.0883592777 -0.1664235614 -1.4341252525
O -5.3595118359 0.3543087166 -2.4878874346
O -5.1262172106 -1.5098803975 -1.2364375987
H -2.7433633409 -2.3339675306 1.6338851703
H -2.6614110490 -1.0803544387 2.8755452700
H -4.1185487828 -1.2633113649 1.8895046629
H -0.4503761622 -1.4481438238 2.1814848195
H 1.2404668742 -1.0784490574 -1.0262047748
H 3.6816116518 -1.3238571104 -1.3417034930
H 4.2654551869 -1.2012774033 2.9054204890
H 1.7959176025 -0.9747444699 3.2278483668
H 7.3329218164 0.3920800105 -0.0296071184
H 5.7291605320 0.5521237640 -0.8231417630
H 5.9162472480 0.9544361666 0.9250143442
H 1.2045610036 1.3099045952 -0.6449507403
H 0.8005962235 3.0369630332 -2.3917602645
H -3.4311144499 2.3977486661 -2.1553630849
H -4.9211532683 1.6056478861 -0.2918140738
H -5.1596733735 0.1351497222 0.6814776824
H -5.3824791027 -1.9085724858 -2.0831379681
