42
CONF20
C -2.6402775119 -2.0340729574 -1.6826674220
C -2.2389948593 -0.7821674250 -0.9810636797
C -3.0216813276 0.2932074395 -0.6840417753
C -2.2183593760 1.2815115489 0.0303696614
C -0.8887329455 0.8029067854 0.1345026889
C -0.8599254884 -0.5151184387 -0.5302593206
C 0.1484400802 -1.4017347950 -0.7164276886
C 1.5782953230 -1.2279881644 -0.4856456128
C 2.3315839695 -2.3039148425 0.0117533904
C 3.7006052388 -2.1841163174 0.2165132577
C 4.3263825226 -0.9871064711 -0.1057799822
C 3.6176978862 0.0774286586 -0.6583726488
C 2.2476863351 -0.0437051877 -0.8372590993
S 6.1298607849 -0.8528865368 0.1071366547
O 6.6273826338 -2.2344575742 0.5331424170
C 6.0805669989 0.1665592714 1.6357154309
C 0.0424170586 1.5190730605 0.8758738515
C -0.3269139005 2.7331252989 1.4642229700
C -1.6252109187 3.1872312754 1.2998225452
C -2.6014177938 2.4893042029 0.6011780038
F -1.9701433796 4.3731153461 1.8688184915
C -4.4664598947 0.4937867732 -0.9789369444
C -5.3532055310 0.3134647970 0.2358875701
O -5.0077134249 -0.1325281128 1.3077086298
O -6.6186956829 0.7030105452 -0.0294157971
H -2.4450256933 -2.9127865279 -1.0566002620
H -3.7031997988 -2.0335694414 -1.9306428506
H -2.0738231762 -2.1690004760 -2.6112489007
H -0.1306106574 -2.3844141212 -1.0940554920
H 1.8314169822 -3.2376802620 0.2516857577
H 4.2847290712 -3.0089870415 0.6118778118
H 4.1275929889 0.9899968172 -0.9548062989
H 1.6899291401 0.7717396554 -1.2853838946
H 5.5221179759 -0.3847602437 2.3965657479
H 7.1178932159 0.3242514061 1.9405214562
H 5.6007425140 1.1215323812 1.4050458935
H 1.0539250517 1.1577958600 1.0170298649
H 0.3800431307 3.3162914864 2.0434616663
H -3.6128447016 2.8772056003 0.5364851549
H -4.8279697502 -0.2059834483 -1.7403320751
H -4.6530080752 1.4976252647 -1.3808237493
H -7.1550953058 0.5468154027 0.7664962967
