48
CONF5
C 3.4064203584 0.4579538439 0.1571628041
C 2.0627371086 0.5987661911 0.3346386299
C 1.0349425504 -0.1755499388 -0.3010193505
C 1.4530694767 -1.2499404528 -1.2654146465
C -0.2722917631 0.1005090632 0.0141438551
C -1.4296026680 -0.5129744093 -0.5535645292
C -2.7500352600 -0.3500849699 -0.2369454625
C -3.2667300930 0.3627564941 0.9382673120
C -2.4019162176 0.6047970243 2.1553216864
C -4.5627043275 0.7406389006 0.9998629036
C -5.5587106953 0.5642264799 -0.0937840453
C -4.9084840429 0.0740972113 -1.3810602629
C -3.8257224545 -0.9950515017 -1.1225933137
C -3.3096131767 -1.4652094281 -2.4868289026
C -4.4332065972 -2.2104219470 -0.3943350424
C 4.3618251255 1.2752452943 0.8337806035
C 5.7254778937 1.2324825401 0.7429897456
C 6.5536043791 2.1921315311 1.5496515944
C 6.4198141993 0.2895150663 -0.1090150193
C 7.7529978889 0.1951364085 -0.2448424200
H 3.7645857667 -0.3067243757 -0.5249356073
H 1.7215618212 1.3706201010 1.0251502059
H 0.6070914039 -1.7888615195 -1.6900840493
H 2.0940683795 -1.9845187149 -0.7646913004
H 2.0339992107 -0.8239271455 -2.0914662135
H -0.4192433182 0.9001637847 0.7296341046
H -1.2280397045 -1.1625678794 -1.3964950752
H -1.8134691714 1.5244507243 2.0697357612
H -1.7045574601 -0.2205063174 2.3236347853
H -3.0332614710 0.7104349637 3.0413665910
H -4.9243472609 1.1965995715 1.9203207689
H -6.3312319181 -0.1466309652 0.2403954372
H -6.0950096704 1.5067712720 -0.2675859879
H -4.4360072523 0.9189543808 -1.8984667954
H -5.6683173623 -0.3358866702 -2.0575949368
H -2.8243558163 -0.6513447136 -3.0356939576
H -4.1540992868 -1.8225525760 -3.0853772674
H -2.6040061719 -2.2973942324 -2.4003223784
H -4.8027588457 -1.9461142776 0.5995054793
H -5.2645401741 -2.6253886695 -0.9763453412
H -3.6763498133 -2.9918346845 -0.2728577266
H 3.9375117918 2.0229255811 1.5038818649
H 5.9214859814 2.8491031865 2.1503984295
H 7.1778613314 2.8175637696 0.9001709175
H 7.2317231262 1.6570745911 2.2254334160
H 5.8063347795 -0.3981325335 -0.6846994101
H 8.4393236095 0.8413349373 0.2920596848
H 8.1921763240 -0.5426347992 -0.9070482668
