45
CONF1
C 5.1379894424 3.9312324890 -0.4254359751
C 3.8742928145 3.3997730262 0.2486959406
C 3.3161257289 2.1553441836 -0.4410256931
C 2.0566432247 1.6096381400 0.2298057054
C 1.4959479013 0.3765364844 -0.4751841447
C 0.2677930571 -0.2360803658 0.2200756843
C -0.1773929009 -1.5222888778 -0.4978571036
C -1.3201329064 -2.2574644860 0.1986740707
C -1.7135684060 -3.5504649937 -0.5135234015
C -2.8563764765 -4.2949989548 0.1759466809
C -3.2419453106 -5.5831913918 -0.5490496081
C -0.8673384350 0.7591149892 0.3355083110
C -1.4644357264 1.3036102377 -0.8078353827
C -2.5105247694 2.2158539217 -0.7033997782
C -2.9828017355 2.6034286654 0.5504718432
C -2.3979866480 2.0693473255 1.6957360877
C -1.3500679092 1.1562803446 1.5848569303
H 5.9309859282 3.1750605979 -0.4184756567
H 5.5192827808 4.8231481336 0.0818834327
H 4.9401589830 4.1965750504 -1.4700380966
H 4.0875215793 3.1634956620 1.2997450748
H 3.1034961245 4.1818896746 0.2579525295
H 3.0940957271 2.3924348476 -1.4913506021
H 4.0887257158 1.3734447477 -0.4576959008
H 2.2795916235 1.3585127070 1.2767992805
H 1.2906882325 2.3963752159 0.2572296232
H 2.2758233392 -0.3948447086 -0.5318304072
H 1.2347435577 0.6318181220 -1.5116528967
H 0.5655278043 -0.5098947051 1.2424065825
H -0.4715117836 -1.2765273074 -1.5277861668
H 0.6909471119 -2.1907832095 -0.5734687143
H -1.0272547119 -2.4840651115 1.2339263834
H -2.1965999722 -1.5984498266 0.2625583039
H -0.8380528263 -4.2121164293 -0.5794048977
H -2.0043286690 -3.3197374833 -1.5483754988
H -3.7297246539 -3.6324607559 0.2420459313
H -2.5643343897 -4.5252423509 1.2092138290
H -2.3896580662 -6.2697577433 -0.6035345075
H -3.5645374575 -5.3712295286 -1.5746083717
H -4.0601293080 -6.1024135508 -0.0398343636
H -1.1086051375 1.0120906022 -1.7923136677
H -2.9596718894 2.6264778735 -1.6031103655
H -3.7988514343 3.3148184652 0.6322049184
H -2.7567694055 2.3628928282 2.6779787938
H -0.8977787317 0.7428185622 2.4829500671
