47
CONF294
C -0.3729933796 -0.4399563509 2.9901616229
C -0.8095092961 0.4713716051 1.8452996457
C -2.0774474353 1.2557130496 2.1848874537
C -2.5335138351 2.1748140683 1.0749331971
O -2.9023897241 1.3288189003 -0.0619103227
C -3.1840449745 1.9516794476 -1.2038652891
O -3.2103919056 3.1567541734 -1.3578017780
C -3.5361245733 0.9783394696 -2.3289298801
C -5.0480561396 0.8267953792 -2.4129691087
O -2.9998913200 -0.3312241377 -2.1215654894
C -1.6402430482 -0.4827240259 -2.1068112362
C -1.1864655589 -1.7616039637 -1.7675545041
C 0.1736992333 -2.0284831703 -1.7197926747
C 1.0741034817 -1.0112856404 -2.0118775794
C 0.6405615857 0.2583275891 -2.3542919998
C -0.7256911511 0.5309463637 -2.4036324281
O 2.4459767468 -1.2978116131 -2.0207019159
C 3.1605999043 -1.0681147441 -0.8851943436
C 2.5858053200 -0.5624458505 0.2880927297
C 3.4161458102 -0.3674437463 1.3736121666
C 4.7729412430 -0.6802043009 1.2590058092
C 5.2398014588 -1.1806211203 0.0495843577
N 4.4482395168 -1.3723381616 -1.0093809021
C 5.6775943177 -0.4743996189 2.4275545327
F 5.6645272616 0.8168995143 2.8577799329
F 6.9635608375 -0.7862622050 2.1541473976
F 5.3056823208 -1.2284250260 3.4984340730
H -1.1622140611 -1.1587721370 3.2365603327
H 0.5260337353 -1.0069193525 2.7287960157
H -0.1551947038 0.1415351514 3.8927233200
H -0.0065946959 1.1810831952 1.6034646451
H -0.9824619379 -0.1271053530 0.9418992880
H -2.8912003405 0.5659427606 2.4426855869
H -1.8996898549 1.8801771593 3.0698084748
H -1.7358381402 2.8517866039 0.7513271019
H -3.4104783316 2.7648957607 1.3580508263
H -3.1506508047 1.4084789941 -3.2618161880
H -5.4395934562 0.4007691799 -1.4851070020
H -5.3014970868 0.1686440712 -3.2473472684
H -5.5067192216 1.8038000871 -2.5814548806
H -1.9116259917 -2.5359361887 -1.5405506600
H 0.5376729410 -3.0158275320 -1.4550138431
H 1.3634350045 1.0355223686 -2.5803925075
H -1.0463962921 1.5293086304 -2.6764536067
H 1.5303854973 -0.3295121054 0.3427074372
H 3.0123067641 0.0253074056 2.3019426261
H 6.2878432481 -1.4374946998 -0.0790438956
