52
CONF102
C 2.3356559288 -1.3724909711 -2.3928116583
C 2.0028094240 0.0455653125 -1.9878392700
C 2.9418011666 1.0850718102 -2.6044237359
C 2.6629867718 2.4832863038 -2.0408759387
C 2.7138995158 2.4621363255 -0.5099317899
C 1.8828272659 1.3121196498 0.0673675792
O 2.1083167373 0.0832973033 -0.5334683440
O 0.4962967434 1.7699789100 -0.0647721747
C -0.5047286504 0.8377498551 -0.0643716579
C -0.7514175053 -0.0221629801 0.9718056537
O -1.7188035925 -0.9780913810 0.8694429287
C -2.5063519640 -1.0756478245 -0.2402456705
C -3.4475575723 -2.0925435488 -0.2473549880
C -4.2718708646 -2.1974394918 -1.3688648354
C -4.1641462145 -1.3202799805 -2.4551145474
C -3.2147039566 -0.3136035498 -2.4248444815
C -2.3596909697 -0.1653803229 -1.2968093054
C -1.3324169465 0.8351063823 -1.2476600829
O -1.1360879913 1.6532394802 -2.1911391643
O -3.0966920522 0.5241822341 -3.4683687984
O -5.2236453217 -3.1566527924 -1.4669340059
C -0.0689428424 -0.0682803681 2.2589167353
C 0.3282847395 1.1208924147 2.8897436702
C 0.9622860934 1.0798387657 4.1190258814
C 1.2098755529 -0.1599836031 4.7362633204
C 0.8082403271 -1.3386815099 4.1170621998
C 0.1657585157 -1.2979548990 2.8866039733
O 1.8437726230 -0.1034032526 5.9394387694
O 1.3323246690 2.2473639972 4.7140154320
O 4.0843753199 2.2759394943 -0.1561532517
O 1.4382457220 3.0061966503 -2.5540746959
O 2.8102576196 1.0938085404 -4.0241827094
H 3.3566140692 -1.6248311763 -2.0886006944
H 1.6406060032 -2.0739763516 -1.9226069176
H 2.2551773935 -1.4745834267 -3.4771828580
H 0.9698193869 0.2808728645 -2.2803001709
H 3.9770360135 0.8057984304 -2.3753790616
H 3.4449079923 3.1654844398 -2.3933001065
H 2.3225106937 3.4116374151 -0.1195009761
H 2.1122774994 1.1662535503 1.1298370605
H -3.5336368019 -2.7716225831 0.5936906937
H -4.8175563426 -1.4327277465 -3.3125446959
H 0.1311151977 2.0856128983 2.4353102251
H 1.0065342425 -2.2896348451 4.6036574595
H -0.1370059967 -2.2211539011 2.4070038834
H 1.9641584054 -0.9932107482 6.2984525486
H 1.7446885009 2.0502890493 5.5677155249
H 4.1675248387 2.3869910473 0.7996763016
H 0.6733822638 2.5258000299 -2.1804718276
H 2.0357076395 1.6457606741 -4.2155142906
H -5.2205599208 -3.7082823464 -0.6722605848
H -2.3477871647 1.1421382641 -3.2419171744
