45
CONF7
C 4.8860224511 3.9615882862 0.1739885028
C 3.6839348056 3.1586679457 0.6679293594
C 3.1884465224 2.1432608271 -0.3610721747
C 1.9827006608 1.3386857473 0.1219803561
C 1.4930509150 0.3235344876 -0.9080176956
C 0.2990779711 -0.5198384254 -0.4287959910
C -0.0413031437 -1.6081004704 -1.4667911221
C -1.2426402757 -2.4844115658 -1.1046676880
C -1.0521500730 -3.2972946955 0.1767584184
C -2.2262446977 -4.2285301790 0.4947542612
C -3.5199779753 -3.4833722940 0.8273587090
C -0.9060814924 0.3389284121 -0.1104806027
C -1.5246213691 1.1063842851 -1.1047123873
C -2.6412234865 1.8854609211 -0.8166868628
C -3.1651724059 1.9122337434 0.4756429470
C -2.5585740867 1.1555869062 1.4745151290
C -1.4392907416 0.3780118327 1.1802363815
H 5.7275170966 3.2999799930 -0.0604158422
H 5.2242228757 4.6820981399 0.9255278512
H 4.6362652295 4.5176633557 -0.7366088716
H 3.9472792016 2.6321323399 1.5949676314
H 2.8630105874 3.8420483924 0.9232541194
H 2.9254859136 2.6681166955 -1.2906015508
H 4.0080820584 1.4561970290 -0.6157071346
H 2.2429988307 0.8137978548 1.0524042609
H 1.1658819099 2.0284252885 0.3748037959
H 2.3149766708 -0.3590557461 -1.1640655869
H 1.2201940940 0.8431480312 -1.8371854341
H 0.6021872432 -1.0148819088 0.5031394342
H -0.2269646819 -1.1222077062 -2.4340130293
H 0.8472457858 -2.2401326822 -1.6000030366
H -2.1321487628 -1.8486852899 -1.0153666972
H -1.4397182719 -3.1764197838 -1.9348680808
H -0.9016988637 -2.6207979110 1.0286700999
H -0.1314340885 -3.8896849966 0.0837597849
H -1.9529898718 -4.8663235713 1.3446388594
H -2.3966851118 -4.9015252233 -0.3565312590
H -4.3106055104 -4.1790426197 1.1265242290
H -3.8903041668 -2.9111974958 -0.0289859764
H -3.3596876691 -2.7805615436 1.6537766951
H -1.1308523111 1.0936908662 -2.1173926419
H -3.1060626184 2.4730879882 -1.6031113372
H -4.0373220467 2.5185449498 0.7002233216
H -2.9555373188 1.1695253114 2.4854325702
H -0.9692887660 -0.2087344366 1.9656690836
