39
CONF104
C -3.1919947359 2.4668500710 -1.2504409923
C -2.3319588905 2.7166652176 -0.0142562470
C -0.9462519946 2.0729562848 -0.1213907914
N -1.0136747773 0.6090435897 -0.2554259356
C -1.5260121915 -0.1309696767 0.9031801021
C -0.5712803208 -1.2187276753 1.3445375449
O 0.6473219230 -0.5609450026 1.7727510110
C 1.6448364133 -1.4149538780 2.1184542666
C 1.8368463074 -1.8006498774 3.4508572275
C 2.8866096371 -2.6238699679 3.8377626650
C 3.7604412202 -3.0785003605 2.8587798368
C 3.6131163952 -2.7293762253 1.5227146069
C 2.5544116916 -1.9015483734 1.1704453926
Cl 2.3573527863 -1.4418713474 -0.4984400345
Cl 5.0877564792 -4.1164098067 3.3231262811
Cl 0.7255912434 -1.2157641257 4.6607981236
C -1.0527393191 -0.0674589015 -1.4387908945
O -1.5911893740 -1.1504459789 -1.5953690651
N -0.3592966618 0.5507061202 -2.5285917518
C -0.7478386737 0.4407172727 -3.8529635743
C 0.2487275417 1.0314876048 -4.5758980156
N 1.2614349976 1.4737934100 -3.7457638318
C 0.8746852308 1.1739256470 -2.5323400413
H -4.1503339205 2.9876176753 -1.1736667258
H -2.6876511475 2.8176886665 -2.1575836615
H -3.4060497280 1.4005190188 -1.3787950656
H -2.8488224165 2.3574321790 0.8838582854
H -2.1792336438 3.7933431903 0.1294703281
H -0.4332734985 2.4891122376 -0.9889458577
H -0.3380343906 2.3006727966 0.7618030371
H -2.4981869898 -0.5857519370 0.6771809655
H -1.6536858986 0.5790688708 1.7246500456
H -0.3538181415 -1.9122445877 0.5250773435
H -1.0036541078 -1.7731013486 2.1881991914
H 3.0152332267 -2.9021933535 4.8756719559
H 4.3044029693 -3.0879021612 0.7711023736
H -1.6730496789 -0.0422742445 -4.1227217014
H 0.3017994168 1.1625457577 -5.6469879273
H 1.4374630162 1.3308136215 -1.6220484748
