46
CONF128
C -0.0029019669 -1.6148326453 1.2691111494
C -1.2556686642 -2.1591430146 0.6272825262
C -2.6014572850 -1.9780072771 1.2858026982
C -2.2708637121 -1.2137207528 -0.0125667236
C -2.0678524330 0.2448413620 -0.0257753538
O -1.7186159333 0.9544348607 0.8976646714
O -2.3230133932 0.7234789119 -1.2745457702
C -2.1299328682 2.1378993316 -1.4745822323
C -0.6967577414 2.4981339777 -1.7767607685
C 0.3363687095 1.5724935580 -1.6854704642
C 1.6403542274 1.9737058553 -1.9660031094
C 1.9366907095 3.2711110441 -2.3552176207
C 0.8929411706 4.1905810356 -2.4561118748
C -0.4117410252 3.8125792755 -2.1644174124
O 2.6722703935 1.0453838859 -1.9246926462
C 2.9267475776 0.4114207163 -0.7223957483
C 2.6423211269 0.9975201799 0.5100129919
C 2.9899089849 0.3200252171 1.6759543077
C 3.6133177319 -0.9239615892 1.6187139960
C 3.8906070058 -1.4951890104 0.3775314059
C 3.5475516245 -0.8339937926 -0.7972683512
C -2.7515913011 -1.2831596849 2.5650647340
C -3.7037514529 -1.5357813509 3.4633696725
Cl -3.7928344814 -0.6847154060 4.9857331536
Cl -4.9656638706 -2.7224504452 3.2578038124
C -1.0385180233 -3.4600405178 -0.1140772967
H 0.7796298724 -1.4964714252 0.5119675873
H -0.1485081527 -0.6484120815 1.7503511072
H 0.3611924460 -2.3264043003 2.0182799257
H -3.3085857988 -2.7834051224 1.1139367678
H -2.7615607122 -1.5946379434 -0.9014969711
H -2.4806963604 2.6839263129 -0.5924698314
H -2.7703475263 2.3908376248 -2.3236708244
H 0.1514419385 0.5415506030 -1.4027542307
H 2.9626116630 3.5496633753 -2.5704096366
H 1.1053422128 5.2107093192 -2.7598311780
H -1.2174581787 4.5372241466 -2.2414754112
H 2.1594901739 1.9674549410 0.5583686905
H 2.7691092820 0.7750511482 2.6366796955
H 3.8778819474 -1.4458763556 2.5323399136
H 4.3726703762 -2.4662311378 0.3195987269
H 3.7555520835 -1.2666725088 -1.7703789474
H -2.0428835180 -0.5047267448 2.8207382402
H -0.6567777277 -4.2215236209 0.5746977067
H -0.3003435469 -3.3204281257 -0.9115824774
H -1.9656742772 -3.8302418294 -0.5600249873
