22
CONF2
C -1.3860643287 0.0875398049 1.4578130921
C -0.7320970201 0.0527399187 0.2321836140
C -1.4783283714 0.0258278470 -0.9468222655
C -2.8760460889 0.0332548042 -0.9013225608
C -3.5311523518 0.0683484270 0.3379662073
C -2.7717150058 0.0955388410 1.5118652809
Cl -3.5456880446 0.1411993603 3.0674817450
Cl -5.2580374460 0.0783527449 0.4104184016
Cl -3.7945187585 -0.0001496943 -2.3658864237
Cl -0.6472021359 -0.0169315425 -2.4700170601
C 0.7505502750 0.0452489105 0.1997716711
C 1.4571294717 -1.1588845364 0.2164350132
C 2.8545475930 -1.1782175500 0.2049953761
C 3.5581927751 0.0318485076 0.1757884150
C 2.8657645142 1.2484302030 0.1544783240
C 1.4681132360 1.2423926089 0.1664197003
Cl 0.5914023748 2.7386220651 0.1239878129
Cl 3.7325963309 2.7422262782 0.1136915759
Cl 5.2854153064 0.0235565367 0.1647875648
Cl 3.7076432121 -2.6802942852 0.2276254410
Cl 0.5664173530 -2.6471960621 0.2379192962
H -0.8086808495 0.1088478951 2.3748101936
