39
CONF42
C 4.2118218890 0.7017399182 -2.4460271457
C 3.9544130729 -0.3787173820 -1.3956305545
C 3.6810779879 0.1755362425 0.0049693192
C 2.4471391695 1.0587777449 0.0984527275
C 2.0842230016 1.4606769753 1.5318179092
O 1.1393556787 0.4498325321 1.9220224814
C 0.3769537281 0.2034401517 0.7578608064
C -0.1805922990 -1.2282632027 0.7992422716
N 0.8732238998 -2.2157135151 0.9272142267
C 1.5603125154 -2.5703844743 2.0322765850
N 2.4955704919 -3.4610049812 1.7258235938
C 2.3324504225 -3.6131876890 0.3804498285
N 1.3635695357 -2.8791149820 -0.1500421816
O 1.2766671896 0.3076169611 -0.3305090890
C -0.7664262399 1.2187166235 0.6051579090
C -1.6768454337 1.5319862678 1.6210795035
Cl -1.6081827361 0.7754932550 3.2089247923
C -2.6936352735 2.4647241992 1.4406842025
C -2.8054446602 3.0925557601 0.2083019871
Cl -4.0833136014 4.2712670647 -0.0258418154
C -1.9340752242 2.8090738835 -0.8335233602
C -0.9295610821 1.8748721757 -0.6176534602
H 3.3225980568 1.3161395843 -2.6205090759
H 5.0239140838 1.3686140421 -2.1342386470
H 4.4932742366 0.2537550105 -3.4039589440
H 4.8245253545 -1.0432525705 -1.3350878705
H 3.1091049763 -1.0038935296 -1.7042805155
H 4.5392048112 0.7755297971 0.3379940656
H 3.5635390209 -0.6514314270 0.7181054814
H 2.5373163389 1.9407065619 -0.5454921052
H 1.6167196244 2.4532694322 1.5730047207
H 2.9287443066 1.4151002671 2.2218155302
H -0.8705879398 -1.3311421769 1.6392225376
H -0.7194693381 -1.4202601412 -0.1306440819
H 2.9338970644 -4.2820851364 -0.2222563328
H -3.3797596948 2.6929251618 2.2470315436
H -2.0330728929 3.3049383118 -1.7918080969
H -0.2371818649 1.6438325171 -1.4183178033
H 1.3420681364 -2.1670364090 3.0117634943
