49
CONF4
C -5.6369112859 -0.5808417071 -2.2847314585
C -4.3250559171 -1.1631264117 -1.7505448178
C -3.4276455424 -1.6078056574 -2.9091007846
C -3.6043590889 -0.1349728552 -0.8764451197
C -4.2975261832 0.2865106959 0.4501728291
C -4.2280173838 -1.0384560779 1.2724669647
C -2.8604332309 -1.6515628245 0.8503541433
C -2.3035845847 -0.6023057197 -0.1601483404
C -2.0011262448 0.6297655692 0.6591864888
C -3.2331415530 1.1828635514 1.0311820325
C -3.3033150885 2.2990620009 1.8500739777
C -2.1004972449 2.8645787110 2.2843632640
C -0.8661296882 2.3180703322 1.9413350221
C -0.8050632890 1.1703371642 1.1306526677
N 0.3894424013 0.5077921427 0.7934841059
C 1.6795722765 0.9319195094 0.9466411806
O 1.9965658270 2.0560206636 1.3407602347
C 2.7166221074 -0.0593264088 0.5868691663
C 4.0152595670 0.3085891186 0.2610498221
N 4.7055276363 -0.8237367467 0.0256775832
N 3.9578840319 -1.9255332143 0.1893118793
C 2.7451231413 -1.4776115086 0.5252949188
C 1.7105958908 -2.5021572040 0.8163145881
F 1.1482971836 -2.3001777912 2.0576833914
F 0.6536422995 -2.4089384253 -0.0878630022
C 6.1015579770 -0.9446050665 -0.3742935395
H -6.1485223804 -1.3054664518 -2.9267608923
H -5.4417166834 0.3191406814 -2.8806129928
H -6.3197356209 -0.3085098057 -1.4739919260
H -4.5675823509 -2.0485859379 -1.1503028033
H -3.1296023127 -0.7445296318 -3.5166008099
H -2.5184666886 -2.1005691733 -2.5508878495
H -3.9570449539 -2.3116895207 -3.5597559616
H -3.3930888143 0.7533915857 -1.4879459641
H -5.2936643189 0.7260681512 0.3810633782
H -5.0602432013 -1.6966365734 1.0055459911
H -4.2887441926 -0.8401199220 2.3455993136
H -2.9882229115 -2.6228050856 0.3627989413
H -4.2574365115 2.7276539950 2.1419387507
H -2.1181546497 3.7519640304 2.9101700818
H 4.4652954224 1.2871638502 0.1809861490
H 2.1055839675 -3.5203426700 0.7659536096
H 6.6360860286 -1.5648923578 0.3488195237
H 6.5391146960 0.0535385673 -0.3992696526
H 6.1631021888 -1.4002846751 -1.3656364632
H -2.1779870015 -1.7875374511 1.6936263444
H -1.5049123659 -0.9706729955 -0.8053935167
H 0.2611937647 -0.3791902542 0.3274452188
H 0.0463171191 2.7723873412 2.2993947736
