51
CONF108
C 4.3000525496 1.6194114073 4.4790798027
C 3.7347512840 1.0912024999 3.1891663325
C 4.3729027885 0.0567704175 2.4981712987
C 3.8626556451 -0.4241400485 1.2958611892
C 2.6995758878 0.1160325343 0.7475017789
C 2.0571823606 1.1477157382 1.4330848181
C 2.5668321383 1.6258260116 2.6366409666
C 2.1648147022 -0.3914010306 -0.5801566219
C 2.4019981789 0.6154618665 -1.7053601763
N 0.7346581066 -0.6927892775 -0.5072190716
C 0.2595676157 -1.8128788526 0.0677942189
O 0.9825477584 -2.7007909512 0.5287607216
C -1.2690114768 -1.9630938372 0.1459673996
C -1.7064397809 -2.0162435768 1.6270286521
C -1.3639750951 -0.7322094958 2.3870286152
C -3.1885088246 -2.3692654601 1.7525774286
N -2.0021838601 -0.9480281283 -0.5893518202
C -2.2214244514 -1.0521460141 -1.9269560631
O -1.7788060237 -1.9470360043 -2.6339852766
O -2.9948780764 -0.0266569559 -2.3611723826
C -3.1860455666 0.0798539584 -3.8120310287
C -1.9660753863 0.7404573474 -4.4281793834
C -4.4571215737 0.8826302201 -3.9984725570
H 4.6264788027 0.8031749247 5.1307497450
H 5.1751721328 2.2521203481 4.2896880051
H 3.5631147320 2.2209493762 5.0170943701
H 5.2759883786 -0.3847749396 2.9122403801
H 4.3683361086 -1.2375778317 0.7813296842
H 2.0479851883 2.4258583098 3.1584934745
H 2.6799357110 -1.3289032344 -0.8165309136
H 2.0511441974 0.2150441989 -2.6615490270
H 1.8756188088 1.5538382973 -1.4987836328
H 3.4695974344 0.8352071850 -1.7846232501
H 1.1439257836 1.5786688080 1.0303366100
H -1.4862646308 -2.9379856084 -0.3073798144
H -1.1178049081 -2.8329650223 2.0592984698
H -1.6232693972 -0.8469798317 3.4438561219
H -0.2956973706 -0.4991047254 2.3252664866
H -1.9240971124 0.1318161493 2.0098013942
H -3.4232858850 -3.2905857665 1.2095549985
H -3.4496760114 -2.5155259651 2.8052075022
H -3.8266241997 -1.5702264845 1.3599760121
H -2.4328016802 -0.1808674529 -0.0960234460
H -3.3108018066 -0.9340389759 -4.2041720204
H -2.0994560887 0.8211934817 -5.5113385296
H -1.8325865458 1.7473208089 -4.0190629183
H -1.0640900700 0.1533743923 -4.2359793935
H -4.6656351493 0.9880407652 -5.0669184245
H -4.3479980395 1.8828302330 -3.5672187350
H -5.3071596914 0.3830393796 -3.5260694179
H 0.0748760526 0.0085024249 -0.8123450542
