70
CONF96
C -2.7325773041 0.0088197003 0.3590963513
C -4.0763322559 0.7781314090 0.3578872146
C -5.1931284359 -0.1603509089 0.6807558913
C -6.5368662179 -0.1977297563 0.3959181450
N -7.0884979918 -1.3510163697 0.9458326200
C -6.1044172321 -2.0755596779 1.5783796747
C -6.0893109484 -3.2931755603 2.2638600293
C -4.8566734671 -3.7158175756 2.7560391323
C -3.6658276519 -2.9717567921 2.5884517404
C -3.6815844621 -1.7541680340 1.9160697089
C -4.9146819461 -1.3360629326 1.4208528652
C -2.5234883744 -0.8066147273 1.6747234972
C -1.1768847797 -1.5312414465 1.6813319467
C -0.0462454831 -0.5492281484 1.4131856024
C -0.3330253728 0.1829820962 0.1015174374
N -1.5902409784 0.9333270512 0.1936158701
C -1.7091740018 1.8045274620 -0.9919123280
C -0.6064478269 2.8201142729 -1.0400386530
C 0.1322947802 3.0874309276 -2.1147310622
C 1.3035533482 -1.2536525846 1.3562452549
O 1.4002855452 -2.4733127646 1.4821078099
N 2.4236753060 -0.4981913315 1.0650493197
C 3.6823727277 -1.2203463302 0.7686583837
C 3.6486073996 -2.0467654475 -0.5201564467
C 3.1033380996 -1.3195895926 -1.7431752772
N 3.7721495514 -0.0435283527 -2.0463634064
C 3.0802299310 0.6103124386 -3.1628243286
C 5.1914853688 -0.2253665091 -2.3663259721
C 2.4525532731 0.9348562504 1.2191762080
O 1.9079058127 1.4897024009 2.1761160949
N 3.1347441710 1.5767952060 0.2622241012
C 3.3262923783 3.0230412839 0.3379003728
C 4.2045856787 3.4996089503 -0.8075856096
H -2.7566325722 -0.7196134993 -0.4793200941
H -4.0085085818 1.5883670764 1.0989013854
H -4.2525731746 1.2429277044 -0.6153991775
H -7.1627976240 0.4916241559 -0.1540963526
H -8.0576813397 -1.6142799367 0.8708585117
H -6.9854973864 -3.8885368901 2.4065511758
H -4.8055431500 -4.6599341548 3.2905264024
H -2.7442125821 -3.3718967860 2.9985545960
H -2.5190010220 -0.0661694063 2.4916399798
H -1.0225820141 -2.0296507090 2.6427300719
H -1.1816645859 -2.3105216091 0.9089551119
H -0.0120156283 0.1977939116 2.2118585196
H 0.4625455459 0.8932548552 -0.1366307310
H -0.3647795914 -0.5560183941 -0.7264409882
H -1.7331662289 1.2236229129 -1.9343973920
H -2.6519975581 2.3562204101 -0.9227332298
H -0.4492909344 3.3817898149 -0.1181993283
H -0.0001321077 2.5354273809 -3.0425715053
H 0.8879674109 3.8675823629 -2.1025171836
H 3.9036565906 -1.8838139227 1.6119416374
H 4.4748673234 -0.4708670187 0.7232527341
H 4.6678053963 -2.4070695071 -0.7001837944
H 3.0281836516 -2.9343878212 -0.3701538092
H 2.0411560549 -1.0935379298 -1.5814370940
H 3.1563795099 -2.0013348481 -2.6130656625
H 2.0381697762 0.8038979396 -2.8851451631
H 3.0886885377 -0.0106939613 -4.0762343328
H 3.5630486252 1.5653363976 -3.3915863038
H 5.7321985889 -0.6220515334 -1.5027535131
H 5.3380807382 -0.9130030309 -3.2186463638
H 5.6288128159 0.7441931080 -2.6241647595
H 3.4457050259 1.0531996579 -0.5836833988
H 2.3506473144 3.5271283968 0.3065106773
H 3.7833923145 3.2735266063 1.3032629422
H 3.7339260009 3.2965035299 -1.7744379063
H 5.1819193508 3.0065613807 -0.7858884832
H 4.3622553925 4.5782484219 -0.7277386784
