39
CONF162
C 5.5371472751 3.1830601829 -1.5306607760
C 4.9610924927 1.8533857282 -1.0484583793
C 6.0401130346 0.8891245113 -0.5514648209
C 5.4681177122 -0.4161198555 0.0118288531
C 4.8965713920 -0.2793954022 1.4336982204
C 6.0092217402 -0.3380575393 2.4932642682
C 5.5977368756 0.1957034841 3.8649007410
C 3.8684058078 -1.3680833925 1.7105167917
O 2.6966846466 -1.1925557805 0.8488929019
C 1.7816719971 -0.3100544671 1.2656358066
O 1.7864075769 0.2590750452 2.3355315591
C 0.7687345657 -0.0621394590 0.1892227521
C 1.2609676039 0.2346658176 -1.0775911186
C 0.4022744903 0.6044281496 -2.0995310103
C -0.9772767483 0.6586873798 -1.8826680482
C -1.4839613174 0.3254460923 -0.6137536185
C -0.6084607557 -0.0251302068 0.4218262688
Br -1.2806667697 -0.5357681647 2.1227489325
Br -3.3538762975 0.3494568949 -0.3105943167
Br -2.1385203002 1.1679256839 -3.2854826514
Br 1.1817406631 1.0297334780 -3.7792584495
H 6.0628816473 3.6976616168 -0.7187193313
H 6.2537002289 3.0257317196 -2.3447277764
H 4.7513927241 3.8502572831 -1.8988729619
H 4.2287700368 2.0401714036 -0.2514308741
H 4.4091650003 1.3727767043 -1.8677473736
H 6.7164249418 0.6615618419 -1.3854930336
H 6.6534347736 1.3916271741 0.2095780335
H 6.2426214233 -1.1947566273 0.0316521921
H 4.6859810242 -0.7738638221 -0.6706005355
H 4.3855184496 0.6888661366 1.5299253141
H 6.8625820095 0.2428217443 2.1248444674
H 6.3614327197 -1.3758092764 2.5786329491
H 4.7789477803 -0.3825620348 4.3041101106
H 6.4381790109 0.1580998091 4.5648495573
H 5.2677970403 1.2375356795 3.7899673991
H 3.5343659004 -1.3754309529 2.7499548991
H 4.2547704864 -2.3542270274 1.4390800528
H 2.3286675357 0.1963171436 -1.2542541684
