33
CONF426
C 4.9183155461 -3.4680925936 -0.4559450767
C 5.3352563108 -2.1356503743 0.1816170421
C 4.7046498834 -0.9537627174 -0.5025029945
C 5.3835442411 -0.1079267072 -1.2860049056
C 3.2516463774 -0.7627734610 -0.2427560809
O 2.6331480451 -1.3668714128 0.6146867083
O 2.6791317531 0.1555804869 -1.0569931435
C 1.2760969472 0.4250174174 -0.8292731082
C 1.1392958235 1.4005583168 0.3374545771
C -0.2528719781 1.9576397014 0.5224562813
C -1.3572848905 0.8925679815 0.8062128174
C -2.6865408450 1.4557927186 1.4071896778
C -3.9074314760 0.4862272897 1.2810526298
F -4.3350353417 0.4161015660 0.0151673944
F -3.5761853595 -0.7433678632 1.7009084953
F -4.9096585141 0.9465296143 2.0432239235
F -2.5007955094 1.7065062572 2.7225001341
F -3.0205022206 2.6091140162 0.7820467384
F -1.6468680231 0.2545936293 -0.3595852358
F -0.8613735650 -0.0205355685 1.6789104466
F -0.6411000338 2.6668189585 -0.5823287723
F -0.2526509755 2.8299491234 1.5820730760
H 5.2322480592 -3.5072940784 -1.5036448263
H 3.8332501422 -3.6008903701 -0.4171312174
H 5.3825147924 -4.3054891745 0.0732879665
H 5.0503842378 -2.1344237270 1.2394166535
H 6.4225886277 -2.0261064208 0.1310596543
H 4.9052032022 0.7324433308 -1.7752303165
H 6.4496548706 -0.2438358166 -1.4431673449
H 0.7554598931 -0.5169088330 -0.6439680632
H 0.9224396579 0.8684874151 -1.7615479917
H 1.4477701927 0.9283147426 1.2730906491
H 1.7804430321 2.2711739742 0.1603690490
