38
CONF37
O 0.8325324599 0.2830431995 0.7370498164
P -0.2161025767 -0.3303131929 -0.1063678066
O -0.6280501981 -1.8399893153 0.2458029036
C -0.7703841604 -2.2232069580 1.5954612184
C 0.3257189628 -2.7615155377 2.2530511923
C 0.1665894390 -3.1886433773 3.5691902494
C -1.0697061270 -3.0722777896 4.2019761243
C -2.1550032182 -2.5289564730 3.5177058694
C -2.0126657503 -2.0982419279 2.2002295803
O 0.0991449633 -0.4409556398 -1.6752769509
C 1.3907049713 -0.8169632889 -2.0983828651
C 1.6702905446 -2.1628550831 -2.2857354635
C 2.9328719201 -2.5186141776 -2.7558102878
C 3.8840926745 -1.5380908497 -3.0295905351
C 3.5755418650 -0.1929573768 -2.8345973250
C 2.3186535725 0.1790373304 -2.3638816195
O -1.6458902259 0.3981785998 -0.1183338748
C -1.7003487207 1.8071691862 -0.1636396317
C -1.7065431729 2.4400052464 -1.3983534403
C -1.8116755475 3.8289948870 -1.4308132299
C -1.9100063385 4.5554569372 -0.2459489889
C -1.9048646561 3.8936950740 0.9806054310
C -1.7983786229 2.5058266860 1.0303076784
H 1.2782785959 -2.8417135664 1.7401229278
H 1.0135040678 -3.6131344503 4.0985782511
H -1.1875048154 -3.4069636648 5.2273586620
H -3.1198690435 -2.4400288182 4.0064217181
H -2.8461491318 -1.6776288632 1.6481437200
H 3.1686736925 -3.5667048535 -2.9095309832
H 4.8649691624 -1.8216045363 -3.3967446606
H 4.3136924567 0.5733031382 -3.0484681607
H 2.0555180129 1.2193040750 -2.2039968233
H -1.6349133405 1.8552056711 -2.3090026809
H -1.8191378992 4.3410971194 -2.3875999398
H -1.9931988610 5.6368052258 -0.2781872365
H -1.9833418044 4.4563292226 1.9052813882
H -1.7908832632 1.9690487702 1.9730846890
H 0.9136027933 -2.9099772444 -2.0719498830
