41
CONF9
C -4.3426038544 -2.2992665311 0.0935055375
C -4.3862369503 -1.4311445337 1.3274911621
O -4.5045410308 -0.0514161227 0.8730573286
C -4.4579111659 0.8782290607 1.8340943312
O -4.3925643053 0.6553912396 3.0216705119
C -4.5530109679 2.2962175986 1.2672424102
C -6.0108928086 2.7282155932 1.2208362976
O -4.0476843082 2.4093582361 -0.0609885940
C -2.7271877142 2.1304588781 -0.2734741837
C -2.3186749477 2.1548145068 -1.6089451759
C -1.0011954267 1.8796080336 -1.9385075144
C -0.1014693702 1.5806606903 -0.9270794319
C -0.4813766060 1.5641031485 0.4017338029
C -1.8049268058 1.8384369735 0.7348750421
O 1.2412704423 1.3791848844 -1.3071839972
C 1.8173699892 0.2375565895 -0.9631792979
N 1.3362820995 -0.8030270980 -0.3674392179
C 2.4317448986 -1.6681543569 -0.3087499958
C 3.5378181783 -1.0496688357 -0.9024208591
O 3.1376388819 0.2000643486 -1.3301663127
C 4.7854431474 -1.6192240642 -1.0215593793
C 4.8861020338 -2.9055781579 -0.4899186362
C 3.8116857371 -3.5642064500 0.1127967689
C 2.5648251654 -2.9492279226 0.2106959760
Cl 6.4336198337 -3.7268905763 -0.5867765618
H -4.2498674065 -3.3485687852 0.3884476072
H -5.2553665528 -2.1856113116 -0.4971971866
H -3.4850885119 -2.0380293428 -0.5321916914
H -5.2422658775 -1.6572779707 1.9715645314
H -3.4749510604 -1.5161710014 1.9279172363
H -3.9896654170 2.9456672882 1.9509364119
H -6.4463248583 2.6658454070 2.2209397401
H -6.5720192827 2.0818407781 0.5410536061
H -6.0771010783 3.7591540916 0.8654076600
H -3.0498948893 2.3852713387 -2.3752579832
H -0.6670794555 1.8919881348 -2.9697899676
H 0.2391172922 1.3265288809 1.1751280309
H -2.0915531113 1.8168163906 1.7794137472
H 5.6241147571 -1.1182481843 -1.4872139399
H 1.7271680806 -3.4554326445 0.6761071013
H 3.9590363711 -4.5632290039 0.5050538460
