55
CONF54
C 5.6995289484 -3.4248443161 -2.3127786581
O 4.7195586712 -2.4268022767 -2.6273727449
C 3.6903149757 -2.2578358459 -1.7523170258
C 3.5276075914 -2.9847470786 -0.5707041603
C 2.4264297475 -2.7238934444 0.2422124903
C 1.4839655407 -1.7515721007 -0.0889963246
C 1.6597406400 -1.0382027504 -1.2824186743
C 2.7466952309 -1.2838167619 -2.1035507020
C 0.3357792405 -1.4991589612 0.8519323949
S -1.2495347304 -1.5327016026 -0.1241146707
C -2.3760212731 -0.6192068381 0.9128138875
C -3.5013347510 -1.2734927084 1.4206727775
C -4.4653691440 -0.5764522675 2.1402926217
C -4.2906331492 0.7823427867 2.3885020262
C -3.1661683037 1.4406277350 1.9062972411
C -2.2108666048 0.7594652112 1.1475889378
N -1.0980633149 1.4787896245 0.6356550582
C -1.3375157250 2.7026697758 -0.1519126579
C -1.4349595913 2.4141285248 -1.6465113277
N -2.5695565033 1.5613228345 -2.0002918863
C -3.8426307766 2.2713146595 -1.8820985084
C -2.4058005421 1.0464577498 -3.3603007271
C 0.1947266870 1.0680566026 0.7888110917
O 1.1472878684 1.6741883214 0.3055553013
C 0.4080393484 -0.1841523912 1.6467788681
O 1.7200429591 -0.1503540321 2.2322254104
C 1.9218692412 0.8309697549 3.1489076548
C 3.3380340794 0.8354717257 3.6301630867
O 1.0495204196 1.5998840318 3.4932961204
H 6.2044480320 -3.1959131310 -1.3670137690
H 6.4212286784 -3.3976555576 -3.1294331079
H 5.2427070473 -4.4198685941 -2.2573406459
H 4.2355429017 -3.7493592478 -0.2760373062
H 2.3058222201 -3.2938026532 1.1594391803
H 0.9354116603 -0.2856946966 -1.5756770769
H 2.8807137089 -0.7314452307 -3.0280415108
H 0.3023763930 -2.3098201423 1.5865633156
H -3.6176017704 -2.3363155747 1.2364267726
H -5.3391714508 -1.0970073927 2.5178974497
H -5.0222791281 1.3317506129 2.9718801740
H -3.0208205002 2.4936739131 2.1231505287
H -0.5050929310 3.3874512702 0.0254739751
H -2.2468003706 3.1767732848 0.2204924012
H -1.4688631909 3.3868327865 -2.1793526341
H -0.5135609233 1.9077504498 -1.9570952417
H -4.0207168567 2.5804271823 -0.8474353757
H -4.6591427341 1.6020853800 -2.1713823628
H -3.8870841459 3.1711578140 -2.5262541933
H -1.4759711788 0.4716428949 -3.4286261748
H -3.2405086104 0.3816147202 -3.6056584946
H -2.3733158971 1.8514133662 -4.1200884195
H -0.3335928376 -0.2126961757 2.4504480933
H 3.9469435268 1.3621224672 2.8867034847
H 3.4017803013 1.3666031618 4.5794210598
H 3.7268594769 -0.1801755576 3.7232025651
