44
CONF10
C -0.8793183959 -4.1520362649 0.1583785002
C -1.1237622083 -4.3104067328 -1.3486461344
C -0.7499048551 -2.9313721387 -1.8977885485
C -1.3338795542 -1.9495968917 -0.8547582642
C -1.4340766199 -2.7543222896 0.4774987839
N -0.6236379186 -0.6636753789 -0.7584198079
C -1.1717303792 0.4939979078 -1.4511320058
C -1.7396085697 1.5706370625 -0.5410090387
C -2.2203277351 1.2627730236 0.7315940483
C -2.7583215237 2.2500033710 1.5495521213
C -2.8110126200 3.5588301496 1.0840303008
C -2.3312813059 3.8952936271 -0.1765114838
C -1.7955849416 2.8947058252 -0.9798009933
Cl -3.4813803543 4.8107493671 2.1104624653
C 0.6478484319 -0.6466462490 -0.2123280869
O 1.2363288343 -1.6700767720 0.1162919076
N 1.1809534990 0.6306162911 -0.0629211855
C 2.4430941844 0.9608925106 0.4561400207
C 2.6195002198 2.2741874393 0.9132331530
C 3.8498039581 2.6923236189 1.3996682242
C 4.9247625797 1.8090314426 1.4444898590
C 4.7468662959 0.5059215495 0.9903487348
C 3.5223398390 0.0709335345 0.4947753842
H 0.1968655764 -4.1679645879 0.3548260893
H -1.3500172018 -4.9394729281 0.7541808179
H -0.5387965628 -5.1184938820 -1.7976424742
H -2.1845233455 -4.5224115677 -1.5393221522
H -1.1340824009 -2.7383795730 -2.9047279080
H 0.3381210703 -2.8244925876 -1.9138127865
H -2.3504480298 -1.6799235329 -1.1597590488
H -0.8859638756 -2.2688283552 1.2864504864
H -2.4864815466 -2.8192521949 0.7763160209
H -0.4129346152 0.9415996870 -2.1083369971
H -1.9690155115 0.1361881653 -2.1131858442
H -2.1576002678 0.2405721581 1.0925406738
H -3.1285156582 2.0095244888 2.5393672054
H -2.3701581601 4.9229305165 -0.5184586057
H -1.4113742480 3.1536609033 -1.9632284714
H 0.5238700513 1.3974868087 -0.0650083524
H 1.7827382948 2.9685964213 0.8875407740
H 3.9644845263 3.7132700044 1.7497266404
H 5.8863361992 2.1324103444 1.8279757711
H 5.5761470266 -0.1941048559 1.0183584368
H 3.3936785060 -0.9456786259 0.1530518920
