57
CONF70
C -4.9932276754 -1.8518161610 1.7887166702
C -3.7819436650 -1.8609022397 0.8669069820
C -2.8612754828 -0.6681327638 1.1040549546
O -3.0976167150 0.1408736599 2.0051261751
N -1.7810624147 -0.5512561601 0.2666316940
C -1.5708401989 -1.5446643503 -0.7500974212
C -2.0571868584 -1.3414239088 -2.0403766466
C -1.8474177902 -2.3083069193 -3.0197243312
C -1.1519039230 -3.4764575642 -2.7139190549
C -0.6658111643 -3.6771447697 -1.4234062809
C -0.8735803299 -2.7123797185 -0.4420034284
C -0.8244493099 0.6107807823 0.3781685910
C -0.1669600794 0.6104746346 1.7736033567
C 1.0021989518 1.5849007315 1.8889892258
N 2.0192945346 1.3292998017 0.8662124797
C 1.4243909367 1.4637057242 -0.4655166399
C 0.2994807480 0.4524884042 -0.6617730316
C 3.1590577555 2.2269268055 1.0515703389
C 4.3643363848 1.8819886578 0.1622701484
C 4.7857571750 0.4514907129 0.2549012555
C 4.7479510652 -0.5146973400 -0.7152722487
C 5.1879070504 -1.7938626263 -0.2704285427
C 5.5595433752 -1.8018811686 1.0442243401
S 5.3718795626 -0.2280734673 1.7547497574
C -1.5893141099 1.9177124174 0.1391684510
O -2.1666607660 1.8976921926 -1.1638578006
C -2.8886892036 3.0955475167 -1.4281790048
H -4.6915687294 -1.8870011345 2.8385920305
H -5.6235135399 -2.7212848316 1.5811896488
H -5.5920314909 -0.9489183300 1.6428775316
H -3.2031364206 -2.7824616501 0.9998049320
H -4.0938270530 -1.8638242345 -0.1839603990
H -2.5918722876 -0.4238477142 -2.2624015978
H -2.2280513575 -2.1482920132 -4.0237707892
H -0.9889867691 -4.2286964094 -3.4793225668
H -0.1216415784 -4.5844268916 -1.1803483425
H -0.4981891942 -2.8555741437 0.5669513747
H 0.1990979780 -0.4062259422 1.9619282654
H -0.9089127952 0.8454915280 2.5390875919
H 1.4642977713 1.4592178588 2.8756879464
H 0.6383231247 2.6311803616 1.8407724590
H 2.1876283427 1.2581943834 -1.2225226002
H 1.0679208493 2.4982594509 -0.6447678584
H -0.1002078878 0.5497275077 -1.6744932337
H 0.7341226154 -0.5481979700 -0.5703319776
H 2.8810233346 3.2843338687 0.8690495061
H 3.4684452754 2.1543196643 2.1020644094
H 4.1494300328 2.1005185477 -0.8885088492
H 5.1848981284 2.5485141266 0.4544356013
H 4.4085772264 -0.3082994495 -1.7246216653
H 5.2278609913 -2.6734073240 -0.9027891659
H 5.9342296188 -2.6249695646 1.6377762333
H -2.3706326760 2.0411025647 0.8988814377
H -0.8942970358 2.7656888504 0.2233936869
H -3.3065282317 3.0076475169 -2.4338944189
H -3.7071950963 3.2338419356 -0.7059965073
H -2.2291218029 3.9753845516 -1.3855032701
