33
CONF17
C -2.7267271788 2.0137890273 0.0179995446
C -2.9583499059 0.7968540781 0.9126446182
C -4.4349257360 0.6662092409 1.2866268016
C -2.4661197014 -0.5014200679 0.2380698759
C -0.9913542830 -0.5007297020 -0.0591733797
C -0.5049696967 -0.2770716738 -1.3473233515
C 0.8626581614 -0.2413561040 -1.6024049701
C 1.7828463054 -0.4219973942 -0.5721418244
C 1.3033203682 -0.6522621222 0.7200414790
C -0.0620654439 -0.6913046004 0.9684203721
C 3.2780160381 -0.3580900618 -0.8425190218
C 3.9454342327 0.8200654683 -0.1305598390
C 3.8972394457 -1.6720623179 -0.4058442058
O 4.4273598203 -1.8836314605 0.6592438241
O 3.7560585242 -2.6282315452 -1.3605936204
H -1.6677916398 2.1352007734 -0.2281891055
H -3.0696725688 2.9299249575 0.5092466912
H -3.2823183436 1.9096282896 -0.9223569995
H -2.3751070512 0.9314750863 1.8348592898
H -5.0478846161 0.5231266575 0.3886140298
H -4.7939935625 1.5670668274 1.7943502215
H -4.6064670168 -0.1885556650 1.9492287690
H -2.7046843997 -1.3474706472 0.8949582576
H -3.0319966264 -0.6498393227 -0.6908691614
H -1.2070577499 -0.1292136431 -2.1635886209
H 1.2179265117 -0.0732108999 -2.6153827800
H 2.0059456280 -0.8176278825 1.5320481099
H -0.4166052392 -0.8800668966 1.9786183061
H 3.4182034076 -0.2737002621 -1.9251910587
H 3.4793015268 1.7551132103 -0.4516443150
H 5.0145073132 0.8581735050 -0.3587707847
H 3.8357691929 0.7272155377 0.9519295781
H 4.1235036960 -3.4460004114 -0.9896253273
