43
CONF6
O 5.7147673264 0.7926965158 -2.9714349594
C 5.2078978504 1.7205317001 -2.1324161705
O 5.7968001003 2.7462877473 -1.8493842628
C 3.8720460232 1.3508239450 -1.6052278214
C 3.2285741569 0.1658048531 -1.9790576976
C 1.9779264679 -0.1402186324 -1.4645892870
C 1.3819494389 0.7381534735 -0.5622541350
C 2.0030210343 1.9278563648 -0.1875587255
C 3.2485858212 2.2298576919 -0.7140523906
N 0.0984735902 0.4339143707 -0.0314073777
N -0.8854219602 1.3738073516 -0.0837934836
C -1.9561295395 0.7232659170 0.3612171652
N -1.6921417536 -0.5766259505 0.7098299519
C -0.3892727940 -0.7360256825 0.4684592034
C 0.3632504302 -1.9525268633 0.7314697156
C 1.6887507003 -1.9061465314 1.1911379398
C 2.4062714462 -3.0681058918 1.4200234257
C 1.8007725904 -4.3054303683 1.1881452865
C 0.4849564040 -4.3778136484 0.7572551516
C -0.2501116846 -3.2102826445 0.5406715792
O -1.5324295863 -3.3561708558 0.1270994930
C -3.2750574577 1.3275231825 0.4852299719
C -3.5072410707 2.6200254425 -0.0122411708
C -4.7484956549 3.2227521057 0.1016898853
C -5.7929213149 2.5322591118 0.7230601819
C -5.5908286579 1.2555238151 1.2228473607
C -4.3399685618 0.6405089642 1.1110120515
O -4.2186218907 -0.6054404708 1.6303772740
H 6.5837769702 1.1076010466 -3.2710951276
H 3.6962660963 -0.5113554794 -2.6830186465
H 1.4657146730 -1.0475971350 -1.7634064406
H 1.5151644647 2.5965189049 0.5120658563
H 3.7529477558 3.1468553005 -0.4313507388
H 2.1478159262 -0.9418629363 1.3807999281
H 3.4267736403 -3.0134429188 1.7819823749
H 2.3555607126 -5.2225162617 1.3587900789
H -0.0003327915 -5.3334218891 0.5888702124
H -1.9783962604 -2.4901603794 0.1381568407
H -2.6887791782 3.1427885853 -0.4953886652
H -4.9067246328 4.2208340418 -0.2918302752
H -6.7712329244 2.9931240457 0.8169608704
H -6.3921659608 0.7084266754 1.7087667469
H -3.3017912310 -0.9225965080 1.4735896237
