47
CONF57
C -7.3930690729 -1.3181768667 0.5694927357
O -6.2642198939 -1.5591805197 1.4658400602
P -4.9655108184 -2.3222548946 0.9433057990
S -3.5966612588 -2.4843687092 2.3030551913
O -5.5901494291 -3.6510416839 0.3127471317
C -4.7141148034 -4.6512892663 -0.2788136635
O -4.5054502187 -1.5638280895 -0.4281709574
C -3.6430574630 -0.4670472303 -0.4099222141
C -2.4019775593 -0.6105881503 -1.0184628124
C -1.5406297264 0.4768676214 -1.0694502856
C -1.9124738264 1.6902132262 -0.4829194154
C -3.1601169835 1.8161038879 0.1307408974
C -4.0385122493 0.7369458399 0.1564810496
S -0.8636499524 3.1366241559 -0.5674513931
C 0.7602414892 2.4667866623 -0.2317167804
C 0.9748609827 1.5356591790 0.7887198669
C 2.2582407980 1.0744299450 1.0479141608
C 3.3231582871 1.5732979472 0.3071266723
C 3.1314618113 2.5154158290 -0.6943053525
C 1.8395056143 2.9517015114 -0.9726840565
O 4.6030114514 1.1299309644 0.6398407436
P 5.5494827856 0.3315661436 -0.4255583944
S 4.6286734671 -0.9200161930 -1.5805256074
O 6.6656584662 -0.2182627906 0.5769356553
C 6.3364042033 -1.2830639214 1.5126090475
O 6.3504798172 1.4449025488 -1.2384197197
C 7.0773613464 2.4985358361 -0.5331490054
H -7.8824940912 -2.2637356550 0.3278566461
H -7.0518819781 -0.8174550251 -0.3403283396
H -8.0700045736 -0.6696857605 1.1244347857
H -5.3696799029 -5.4535213063 -0.6156516585
H -4.1743131331 -4.2222524478 -1.1271728643
H -4.0135096130 -5.0237063609 0.4730687208
H -2.1244975313 -1.5637028043 -1.4558698049
H -0.5765500839 0.3763233682 -1.5566126299
H -3.4483948110 2.7543557068 0.5932231398
H -5.0111121102 0.8291110268 0.6282131440
H 0.1413956548 1.1623646294 1.3743317082
H 2.4416075045 0.3417508114 1.8265598325
H 3.9744065638 2.8928087168 -1.2635403075
H 1.6754622512 3.6689008838 -1.7702104084
H 7.2572815460 -1.4917413157 2.0559527986
H 5.5573529670 -0.9479518897 2.2024581594
H 6.0084749061 -2.1708583804 0.9655294709
H 6.4135447137 3.0093393536 0.1692986449
H 7.9349463839 2.0705310369 -0.0103046427
H 7.4090169778 3.1892626250 -1.3074497418
