51
CONF37
C -1.5794070070 -2.2493300129 -3.2231498457
N -1.2904781280 -2.7170287404 -1.8671117551
C -2.5515410952 -3.1207217554 -1.2282379262
C -2.3162075953 -3.7220439063 0.1494826890
C -1.5910472497 -2.7160545978 1.0352802911
C -0.3185114633 -2.2358899850 0.3434385663
C -0.6067800974 -1.6857836233 -1.0570592487
C 0.6819133163 -1.2272367534 -1.7541157483
C 1.5389644905 -0.2700772277 -0.9196662770
N 0.7534677903 0.8227865811 -0.3456605913
C -0.0186707001 1.6441128698 -1.1873553567
C 0.3185676414 1.8566680727 -2.5278090531
C -0.4944807032 2.6327663927 -3.3477906664
C -1.6340670654 3.2433793891 -2.8365204737
C -1.9546569338 3.0808235503 -1.4918738206
C -1.1667104607 2.2729375929 -0.6794785926
S -1.6315144185 1.9555835082 1.0069815586
C 0.0000965010 1.8685830829 1.7065550910
C 1.0261718934 1.2650701936 0.9580991299
C 2.2877313867 1.1260509339 1.5358058891
C 2.5203697936 1.5312600732 2.8564949225
C 1.4954405034 2.1272052944 3.5904968063
C 0.2487110814 2.3121878769 2.9968501352
S 4.1612571613 1.2488552734 3.4749558329
C 4.1132028548 2.0091331183 5.1290842108
H -0.6646010310 -2.1485911930 -3.8125670469
H -2.1137223956 -1.2778356311 -3.2393034873
H -2.2091148339 -2.9888464790 -3.7274644138
H -3.0381787981 -3.8555515551 -1.8804428987
H -3.2436017771 -2.2556150237 -1.1373601575
H -3.2773563053 -4.0129104067 0.5891680868
H -1.7109333325 -4.6311253996 0.0428055263
H -1.3535280346 -3.1499628153 2.0131128755
H -2.2441604446 -1.8510263567 1.2162878818
H 0.1465186731 -1.4537422617 0.9520547674
H 0.3967470171 -3.0655831278 0.2534721005
H -1.2722130353 -0.8029494091 -0.9442214397
H 0.4350680226 -0.7512079732 -2.7051363175
H 1.2943909471 -2.1086539579 -1.9850257139
H 1.9706049429 -0.8175513979 -0.0789664531
H 2.3857029731 0.0951561822 -1.5237125210
H 1.2205586654 1.4134187340 -2.9336843500
H -0.2226009111 2.7696715157 -4.3892415614
H -2.2646101716 3.8545793131 -3.4728364396
H -2.8289771591 3.5661130409 -1.0700217204
H 3.1055234292 0.7128469178 0.9554926460
H 1.6469122256 2.4574126294 4.6097713027
H -0.5500863657 2.7842550646 3.5601764068
H 5.1199752944 1.8943523950 5.5371238932
H 3.8744338197 3.0743075266 5.0675176737
H 3.4054259087 1.4958024564 5.7853060219
