36
CONF148
C 0.9630889299 2.5326415579 -3.3750277144
C 2.2394550227 2.0420124535 -2.6773575618
C 1.9807459210 1.6681551848 -1.2505956318
C 2.1300157379 0.4459009306 -0.7372731909
C 1.8181982558 0.0739298197 0.6787929764
C 0.6462216456 -0.9312738360 0.8100118436
C -0.6661522254 -0.4792886408 0.1368662754
C -0.6926878357 -1.2315284062 -1.2173611608
C -0.0037575295 -2.5706214547 -0.9414612078
C 0.9987766010 -2.2620156837 0.1496057170
O 1.9505986689 -2.9554756481 0.4590322175
C -1.8873817105 -0.8337277417 0.9835812763
C -1.9581067880 -0.0554023246 2.2728841529
O -1.3214994745 0.9484405496 2.5268475979
O -2.8522035650 -0.5986905805 3.1208053898
C -3.0427661988 0.1090841116 4.3722036582
H 0.5413447857 3.3967272994 -2.8507457669
H 0.2043573148 1.7432039068 -3.3881814132
H 1.1696574159 2.8294021182 -4.4079950277
H 2.9929937295 2.8404945677 -2.7172181789
H 2.6539663444 1.1811240183 -3.2148158449
H 1.6131048326 2.4677766638 -0.6030299269
H 2.4876267339 -0.3570700106 -1.3866323483
H 1.5624085068 0.9709742768 1.2529312519
H 2.6962524151 -0.3861499432 1.1506754522
H 0.5132354205 -1.1239076957 1.8825113689
H -0.6578142324 0.6023980465 -0.0291703929
H -0.1134157997 -0.6676371405 -1.9550263044
H -1.7090627016 -1.3451749078 -1.6040577553
H 0.4803935533 -3.0358875661 -1.8043073588
H -0.7072482400 -3.3070935275 -0.5266940222
H -2.8107726573 -0.6115710163 0.4315126164
H -1.9237327070 -1.9045126144 1.2170168691
H -3.7935329957 -0.4628538143 4.9158799269
H -3.3971638331 1.1247248082 4.1807535497
H -2.1051430448 0.1428916359 4.9319622505
