44
CONF59
C 4.1308108554 -0.1833098558 -3.6902530243
C 3.2508721234 0.1320726033 -2.5286273738
N 2.9871604978 -0.8546594801 -1.6672456004
C 2.2129235551 -0.5127728610 -0.6238364058
N 1.7138549361 0.7116109014 -0.4224194234
C 2.0508724132 1.6182273302 -1.3450752434
N 2.8079753900 1.3960891318 -2.4172434414
O 1.5504241196 2.8259110963 -1.1116840919
C 1.8452278722 3.8741769809 -2.0714885922
N 1.9309783304 -1.5290486543 0.2805462728
C 2.5031685130 -2.8600012435 -0.0078903034
C 1.1525413990 -1.4269088822 1.4582475411
O 0.9465378129 -2.3981137703 2.1704725867
N 0.6541801335 -0.1794409115 1.7518705086
S -0.4318597288 0.0730223861 3.0293957027
O 0.2174889204 -0.3007610147 4.2886457485
O -0.8850103484 1.4567981146 2.8242589383
C -1.8251065105 -1.0330606501 2.7685015428
C -1.9006325257 -2.1678017834 3.5696192556
C -3.0184915551 -2.9901445456 3.4824491583
C -4.0591288461 -2.6608556088 2.6195294221
C -3.9852913652 -1.5130456595 1.8378168192
C -2.8596394829 -0.6900940942 1.8894901775
C -2.8640296123 0.5171462615 1.0043930006
O -3.7382197337 1.3572381513 1.0317818878
O -1.8444343463 0.5001660595 0.1397745917
C -1.7730042286 1.6357865948 -0.7653354413
H 5.1688759387 0.0377586151 -3.4119456033
H 4.0685317205 -1.2413651618 -3.9475170166
H 3.8756171223 0.4413563532 -4.5477796702
H 2.9224337226 4.0432211103 -2.1272887710
H 1.3364105879 4.7544540723 -1.6815218277
H 1.4539051942 3.6054106965 -3.0548155696
H 2.1865469145 -3.5364014078 0.7808566879
H 3.5926538961 -2.7985993029 -0.0320018561
H 2.1420783306 -3.2184886772 -0.9734162346
H -1.0967114633 -2.3964178467 4.2580427787
H -3.0778739485 -3.8799030195 4.0997804611
H -4.9370693856 -3.2950167216 2.5572853787
H -4.7987194736 -1.2484190826 1.1702917324
H -2.7058701204 1.7251811552 -1.3255539603
H -1.5855818713 2.5480866808 -0.1940014758
H -0.9395333183 1.4184518044 -1.4301886368
H 0.7622937559 0.5658326336 1.0400950772
