44
CONF8
C -1.8227084527 0.2119312994 3.5570073405
C -2.6678911678 0.1343018785 2.3029876032
C -3.1209477784 1.4908210356 1.7975910132
O -1.8058672498 -0.4896590272 1.2854096916
C -2.4057447017 -1.1229159420 0.2688178030
O -3.6013688892 -1.2907871439 0.1573542858
C -1.3659812641 -1.7318289615 -0.6789262725
C -1.9805018437 -2.2128196330 -1.9853079390
N -0.2304645819 -0.8103511921 -0.8828133727
C 1.0249109327 -1.1487353765 -0.3021825472
C 1.6626556690 -2.3239176250 -0.7010083074
C 2.8765610721 -2.6715374203 -0.1251319939
C 3.4518486222 -1.8382127221 0.8299234204
C 2.8221830275 -0.6734770904 1.2330636572
C 1.5961841370 -0.3338998080 0.6758783094
F 4.6336290214 -2.1737045356 1.3799883146
Cl 3.6968662554 -4.1340298535 -0.6048003104
C -0.5281917369 0.4533388664 -1.3341806995
O -1.6990509166 0.8198685969 -1.4562610811
C 0.5997327350 1.3509276231 -1.7201486414
C 0.5022569335 2.7062369966 -1.3947894248
C 1.5054602549 3.5884671440 -1.7796485390
C 2.5948258885 3.1277417791 -2.5172372887
C 2.6790765747 1.7815413914 -2.8686274713
C 1.6903869852 0.8913589438 -2.4641700873
H -1.4939361394 -0.7829199294 3.8693900750
H -0.9426587560 0.8407546032 3.3878120410
H -2.4131154367 0.6529975288 4.3652012211
H -3.5261807131 -0.5278926129 2.4525561536
H -3.6922878937 1.3947771751 0.8713529788
H -3.7561914308 1.9658641675 2.5514141496
H -2.2541418075 2.1347028592 1.6163727949
H -0.9596636870 -2.5932655695 -0.1353931733
H -2.7670868259 -2.9398333475 -1.7733271819
H -1.2108596410 -2.6946633345 -2.5934150706
H -2.4146972832 -1.3821699441 -2.5443435162
H 1.2248096084 -2.9566221255 -1.4651901488
H 3.2884636976 -0.0549985003 1.9922262347
H 1.0815786904 0.5630353975 1.0006143352
H -0.3571429097 3.0563062539 -0.8319399259
H 1.4357845356 4.6371548565 -1.5087337207
H 3.3740896459 3.8183022825 -2.8238652813
H 3.5170081355 1.4239047321 -3.4584610060
H 1.7583669965 -0.1560936896 -2.7391898239
