43
CONF23
C 3.2212371810 3.7570317204 -2.8666700313
O 3.4088219833 2.5311181877 -3.5827646921
C 3.1479866314 1.3691188812 -2.9175320909
C 2.7164913288 1.3135282774 -1.5937953648
C 2.4949357862 0.0351158609 -1.0824357568
C 2.6887004236 -1.1493308838 -1.8300419091
C 3.1272676231 -1.0606496352 -3.1551946790
C 3.3503917351 0.1966227836 -3.6836149101
N 2.3918599390 -2.2630849985 -1.0536544607
C 2.0197726106 -1.7538366071 0.0932704944
N 2.0770031559 -0.3905174538 0.1583281394
S 1.4936457734 -2.6929715224 1.5411941375
O 1.4111338701 -1.6491286909 2.6534748418
C -0.2734849887 -3.0372284061 0.9461263159
C -1.0338809039 -1.7773039351 0.7081495724
N -0.9314985498 -1.2714950041 -0.5310804704
C -1.5370136266 -0.1125930724 -0.7941101371
C -2.2892342035 0.6051583290 0.1335604627
C -2.9312210430 1.9144956763 -0.2097006407
C -2.4102049363 0.0413547134 1.4075215245
O -3.1329111496 0.7263396998 2.3564483826
C -4.4774701069 0.2281071088 2.5255275269
C -1.7695792623 -1.1602500903 1.7355600306
C -1.8857971467 -1.7501404756 3.1124093503
H 3.8820705894 3.8068456843 -1.9928659171
H 3.4787925785 4.5519290303 -3.5669755549
H 2.1779778093 3.8698267090 -2.5478927319
H 2.5548825185 2.1960306369 -0.9888009751
H 3.2851181239 -1.9529852241 -3.7517966952
H 3.6877003312 0.3137075960 -4.7081298354
H 1.8094683416 0.1671414340 0.9574502895
H -0.1370516621 -3.6132512218 0.0267737516
H -0.6902882154 -3.6720063869 1.7312088449
H -1.4272879613 0.2740710490 -1.8072758743
H -4.0160314756 1.8765786959 -0.0691605328
H -2.7253252565 2.1802424702 -1.2491575146
H -2.5533767269 2.7136104613 0.4362441641
H -4.4699496912 -0.8186354453 2.8495131517
H -4.9395571846 0.8487068918 3.2947021591
H -5.0390651842 0.3164928637 1.5882690219
H -2.5842682751 -2.5957991733 3.1181863752
H -0.9176589887 -2.1082579417 3.4659775537
H -2.2531030914 -1.0037079944 3.8184819708
