71
CONF15
C -3.5936184464 -3.3369490420 -4.3462764468
C -4.8988643651 -3.0038326223 -3.6864198277
C -4.9630609085 -2.5026606097 -2.3771533298
C -6.1844467975 -2.1270474563 -1.7916801036
C -7.3544098680 -2.2829539828 -2.5311541236
C -7.3157278619 -2.8062330820 -3.8183441533
C -6.0985519938 -3.1577260757 -4.3851120490
C -6.2234640566 -1.5788580309 -0.3921620326
N -3.7822635659 -2.3206688307 -1.6144957730
C -2.8978227535 -3.3013356209 -1.2628560534
O -2.9481562606 -4.4640584247 -1.6286504332
C -1.8154311061 -2.8286622689 -0.2855919860
N -1.6919865773 -1.3788360601 -0.1873038786
C -0.8869096640 -0.8366774996 -1.2868352463
C -0.8596902396 0.6817236615 -1.2222524126
N -0.3096770855 1.1238631945 0.0562084483
C -1.1027206293 0.5788208108 1.1557783155
C -1.1292651242 -0.9395740865 1.0927146481
C -0.2124292781 2.5793768834 0.1497777927
C 0.8795200257 3.1691839555 -0.7451686196
C 2.2634362129 2.5295750828 -0.5994662733
C 2.9766413564 2.8186896783 0.7356899156
C 2.4316962464 2.0354034659 1.9223621217
C 1.9406596346 2.6950615418 3.0494120468
C 1.4791922260 1.9925269544 4.1611023922
C 1.5289520980 0.6108607668 4.1277544527
C 2.0172608987 -0.0839816135 3.0321682018
C 2.4653778112 0.6389549451 1.9340025937
F 1.0887711931 -0.0884119206 5.1997584005
C 4.4817669879 2.5968834273 0.6588289839
C 5.0579365306 1.6500547752 -0.1899326747
C 6.4335688557 1.4332305708 -0.2016778601
C 7.2271385767 2.1790373726 0.6509505111
C 6.6974753209 3.1285417403 1.5091342958
C 5.3220814947 3.3256723563 1.5048207386
F 8.5650184128 1.9784026659 0.6439158117
H -3.7092669936 -3.3532321551 -5.4326787467
H -2.8243562263 -2.6013067320 -4.0891904596
H -3.2242034138 -4.3109110313 -4.0113818084
H -8.3041980458 -2.0020410753 -2.0854737112
H -8.2344254965 -2.9310682398 -4.3823011160
H -6.0663824634 -3.5475020581 -5.3984196602
H -5.7312115232 -0.6004497819 -0.3217807994
H -5.7139243412 -2.2472301490 0.3104556209
H -7.2551882237 -1.4500983912 -0.0582454356
H -3.6533285261 -1.4565403880 -1.0971798289
H -2.1005325113 -3.2350014438 0.6934259088
H -0.8762223378 -3.3320087006 -0.5730636977
H 0.1504559544 -1.2223591831 -1.2426754309
H -1.3251187500 -1.1565867870 -2.2397367650
H -1.8869881996 1.0727376095 -1.3815652987
H -0.2325619509 1.0558219979 -2.0390580681
H -0.6449932077 0.8902519183 2.1024401469
H -2.1452479965 0.9589203772 1.1369432156
H -1.7534545365 -1.3266429162 1.9065144726
H -0.1003774768 -1.3220308541 1.2365467879
H 0.0069026477 2.8226600007 1.1945185964
H -1.1791757994 3.0657675649 -0.0936783958
H 0.5761037410 3.0999045232 -1.7967765226
H 0.9455986589 4.2436766765 -0.5287165704
H 2.1707218546 1.4479588246 -0.7499797865
H 2.9018570629 2.9151888861 -1.4033571043
H 2.8266041883 3.8834230813 0.9608303559
H 1.9094764663 3.7814398908 3.0615160614
H 1.0939945418 2.5001515275 5.0381919101
H 2.0466037351 -1.1677378465 3.0521188913
H 2.8552605093 0.1032254120 1.0744786271
H 4.4347310928 1.0705089497 -0.8624161051
H 6.8884877853 0.7022191922 -0.8605769409
H 7.3541042349 3.6953394543 2.1594509613
H 4.8901276349 4.0600129494 2.1793858011
