29
CONF4
C -0.1156091836 1.6374408523 -1.5239036453
C -0.3291654649 0.5981607700 -0.4443155948
C -0.8338965551 1.1753265604 0.8972140684
C -0.5372648283 0.0505908234 1.9313075808
C 0.0813412017 -1.0591701245 1.0578303290
C 0.9051949644 -0.2481240519 0.0166833128
C 2.0340852864 0.5844050239 0.6303667900
C 1.5372481470 -1.1132171671 -1.0800701912
C -1.0595333580 -1.6407428914 0.2005376012
C -1.3181117358 -0.5282596424 -0.8576924957
O -2.6789599421 -0.1241897267 -0.9870721316
H 0.5895025561 2.4103115750 -1.1993483836
H -1.0645485737 2.1257756539 -1.7693724366
H 0.2703412939 1.1838058894 -2.4434615371
H -1.8923440295 1.4512208964 0.8454803590
H -0.3005945305 2.0997459303 1.1384757480
H 0.1569043852 0.3890822795 2.7057183188
H -1.4377516767 -0.3028115955 2.4437472138
H 0.6482596121 -1.8071056073 1.6208426485
H 1.6973599540 1.2935481041 1.3881960179
H 2.7731680126 -0.0762278527 1.0976651008
H 2.5520984298 1.1539092790 -0.1489357049
H 1.9722138456 -0.4813786664 -1.8621038076
H 2.3515736013 -1.7102860958 -0.6549870753
H 0.8426092367 -1.8043033615 -1.5595358075
H -1.9610524254 -1.8270985395 0.7948326264
H -0.7902464572 -2.5908876981 -0.2694658507
H -1.0605811920 -0.8729911611 -1.8640689355
H -3.0322405845 0.0334700363 -0.1045642239
