55
CONF16
C -2.7835456347 1.1179651621 -1.8301796644
C -2.4875257475 0.6681500089 -0.3732871221
C -3.0690398970 1.7185650813 0.5923013100
C -4.5936130580 1.7815440246 0.5721675382
C -5.1916608024 0.4323650432 0.8775457449
O -6.3043168162 0.3109910696 1.3973197759
C -4.4138237900 -0.7259945074 0.4627975392
C -3.2134556984 -0.6501717930 -0.1587654046
C -2.6167924542 -1.8846083795 -0.7589943828
C -1.1196083995 -1.9858630798 -0.4872283365
C -0.4066873829 -0.7262158639 -0.9873490014
C -0.9140824676 0.5392378307 -0.2419881292
C -0.2830741158 0.5818865055 1.1618084300
C 1.2491024754 0.4950312897 1.0854101486
C 1.8234543821 -0.7371157932 0.3778782495
C 1.1206036633 -0.8744964377 -0.9939524700
C 1.8187031746 0.1496929984 -1.9207143990
C 3.2050982059 0.4370544415 -1.3063849164
C 3.2863652339 -0.5017991693 -0.0754874501
C 4.2923621369 -0.0578549157 0.9507698965
O 4.0877609248 -0.0069164487 2.1552633962
C 5.6695212551 0.3229707331 0.4352315178
O 6.5686780408 0.5852372574 1.4931696423
C 1.7365173655 -1.9867683314 1.2601739715
O -0.5753624525 1.8505638237 1.7871928666
H -3.8593439342 1.1648647316 -2.0165711987
H -2.3549325961 0.4369670987 -2.5676003151
H -2.3584742418 2.1138488410 -1.9929761425
H -2.6405933417 2.6997021050 0.3651681679
H -2.7628365286 1.4692692483 1.6091264363
H -4.9687018989 2.5066737352 1.3008985134
H -4.9796395504 2.0930968410 -0.4082399203
H -4.8963924536 -1.6933263071 0.5887533928
H -3.1538519127 -2.7690082286 -0.4030699778
H -2.7712826660 -1.8350083105 -1.8480794113
H -0.7102752580 -2.8662445589 -0.9954961163
H -0.9666026857 -2.1355081631 0.5848177291
H -0.6894692345 -0.6170584049 -2.0432986812
H -0.5198517013 1.4270103312 -0.7569486870
H -0.6905699944 -0.2288937829 1.7861150389
H 1.5768147327 1.4069686034 0.5683711289
H 1.6444740009 0.5493345785 2.1060092475
H 1.3471296716 -1.8804487296 -1.3739588879
H 1.2362665562 1.0733770587 -1.9886746991
H 1.8968995591 -0.2503002705 -2.9355714410
H 4.0240112539 0.2511640612 -2.0058518267
H 3.2804532003 1.4822330520 -0.9898428610
H 3.6691397878 -1.4740534894 -0.4303155085
H 5.5591593153 1.2076632023 -0.2115901773
H 6.0442260931 -0.4932657096 -0.2007142580
H 6.0340307416 0.5248634988 2.3045966659
H 2.4436291790 -1.9082326708 2.0903065698
H 1.9784861468 -2.8851460957 0.6813842528
H 0.7421110053 -2.1198441115 1.6902152380
H -0.0395922920 1.8958514865 2.5896338817
