32
CONF1
C 3.5361306685 -2.2049917824 -0.7636986088
C 4.1995900561 -0.9699066102 -0.6611876043
C 3.4842758677 0.1788093546 -0.4372036671
C 2.0726772931 0.1505072222 -0.3051549036
C 1.3898563848 -1.1065404131 -0.4092769926
C 2.1692230929 -2.2641655203 -0.6401394219
C -0.0393079488 -1.1565552844 -0.2787190185
C -0.7601402489 0.0390943621 -0.0465866111
C -0.0791070879 1.3041657188 0.0591341919
C 1.3034382741 1.3170215888 -0.0731831079
Cl 2.1493408173 2.8541576361 0.0527377526
C -0.8575081420 2.4853393014 0.2951274978
C -2.2059764888 2.4318563234 0.4188486270
C -2.9186742075 1.1962014981 0.3199080448
C -4.3083747126 1.1329279811 0.4460486614
C -4.9804680058 -0.0834078371 0.3455624073
C -4.2760842186 -1.2528254505 0.1178438034
C -2.8763838970 -1.2343783001 -0.0152424741
C -2.1788770273 0.0020221765 0.0856764532
C -2.1251064190 -2.4166799535 -0.2493194063
C -0.7687703819 -2.3763658120 -0.3748640268
H 5.2791592320 -0.9234257181 -0.7586980367
H 4.0003007293 1.1267947933 -0.3587212910
H 1.6853657191 -3.2286575781 -0.7231938507
H -0.3459206660 3.4357122984 0.3748167303
H -2.7720672884 3.3414205052 0.5974633552
H -4.8627375661 2.0495404796 0.6245442059
H -6.0604983686 -0.1122186637 0.4462345163
H -4.7979541213 -2.2019150128 0.0389903277
H -2.6523228293 -3.3629170105 -0.3278507223
H -0.2412841734 -3.3044314094 -0.5526614782
H 4.1024431681 -3.1134084881 -0.9403262760
