38
CONF10
O 1.3193321325 -1.7220138636 2.2420195998
P 0.3038071975 -1.1283612605 1.3598063553
O -0.7961167333 -2.1088197725 0.7197596710
C -0.4137156356 -3.1560144538 -0.1338594661
C -0.8978030260 -3.1241589665 -1.4332856590
C -0.5863927989 -4.1759561862 -2.2885570751
C 0.2023359945 -5.2332633002 -1.8428146897
C 0.6788119744 -5.2403252382 -0.5350160279
C 0.3707685728 -4.1997213095 0.3368824827
O 0.8197718598 -0.3990631320 0.0122559702
C 1.7213298413 0.6660942185 -0.0046851794
C 2.6793661304 0.8640428442 0.9828603255
C 3.5286485544 1.9632383377 0.8717432894
C 3.4293194062 2.8371991606 -0.2055167858
C 2.4686443398 2.6108228899 -1.1885709051
C 1.6071233067 1.5253513660 -1.0916699104
O -0.6114489589 -0.0536266150 2.1205682113
C -1.5139137910 0.7778640876 1.4386967885
C -2.7744708769 0.3012484246 1.1078086811
C -3.6693571493 1.1630813696 0.4806333505
C -3.3028117223 2.4755056775 0.1952595932
C -2.0353698681 2.9333249556 0.5445862171
C -1.1298498465 2.0843676734 1.1730760188
H -1.5041462774 -2.2848082721 -1.7551224314
H -0.9594437797 -4.1650634089 -3.3074041084
H 0.4448387724 -6.0504254857 -2.5137029383
H 1.2933545169 -6.0626535473 -0.1836617774
H 0.7341230255 -4.1840163208 1.3578368593
H 4.2790351348 2.1272721753 1.6382962581
H 4.0983592592 3.6874479654 -0.2819753031
H 2.3835924888 3.2846225308 -2.0349499037
H 0.8414342830 1.3365509937 -1.8357589606
H -3.0409836486 -0.7226337022 1.3416247074
H -4.6592720215 0.8044176179 0.2181177412
H -4.0059491903 3.1418913281 -0.2928728960
H -1.7457738045 3.9568214590 0.3303364032
H -0.1376457163 2.4201149096 1.4539457079
H 2.7639813030 0.1716277697 1.8125106074
