39
CONF2
C -0.7474645092 -3.3216883841 0.6903402629
O -1.8040536247 -2.5279111835 0.1323473662
C -1.6146755823 -1.1811592895 0.0865813352
C -0.4700269361 -0.5270014899 0.5472501976
C -0.3812400366 0.8619535045 0.4530055842
C -1.4225492922 1.6019704548 -0.1065118237
C -2.5713892653 0.9481408794 -0.5670928497
C -2.6682561782 -0.4471731151 -0.4806863372
O -3.7718663689 -1.0958538382 -0.9835679353
C -4.8037490795 -1.2939730106 0.0055532482
O -3.6425794633 1.5740492751 -1.1257440858
C -3.5843807208 3.0024028532 -1.2433262322
C 0.8557441979 1.5748967454 0.9737318172
C 2.1502327498 0.9081725951 0.6037852227
C 3.0156229775 0.3867938375 1.5440948527
N 4.1890519312 -0.2048496015 1.2631553845
C 4.4914484857 -0.2670654963 -0.0467090887
N 3.7404191563 0.1919519937 -1.0628221718
C 2.5750797147 0.7738550103 -0.7430751378
N 1.8327554111 1.2785488992 -1.7654690807
N 5.6565374058 -0.9040324455 -0.3848943897
H 0.1766666460 -3.2068177453 0.1121917205
H -0.5650836803 -3.0535797145 1.7373251878
H -1.0931677371 -4.3538972863 0.6299111206
H 0.3557608328 -1.0821433239 0.9755142989
H -1.3318521409 2.6797080913 -0.1743082947
H -4.4272530434 -1.9010744650 0.8369258579
H -5.1624594324 -0.3295179069 0.3838482801
H -5.6185028307 -1.8197105414 -0.4960780332
H -2.7477799642 3.3104573090 -1.8809212584
H -4.5264894290 3.2964854737 -1.7066239027
H -3.4940378766 3.4752307026 -0.2585864103
H 0.8005763627 1.6329003692 2.0681268400
H 0.8432863340 2.6097118502 0.6077229192
H 2.7518560560 0.4511369079 2.6005934229
H 0.8515638761 1.4536641174 -1.6085217881
H 2.0886593960 0.9957897207 -2.6995502809
H 6.0224254904 -0.7190354984 -1.3058531662
H 6.3399411391 -1.0055913287 0.3491996704
