36
CONF69
C 0.3750900951 3.6080069255 -2.4303781489
C 1.6437040057 2.7517667316 -2.3258362220
C 1.6232099907 1.8634762350 -1.1209862422
C 1.6604358823 0.5314859564 -1.1441027108
C 1.6146426499 -0.3465553532 0.0678466798
C 0.3841103093 -1.2590068844 0.0883587106
C -0.9943665094 -0.6008409866 -0.0597099851
C -1.9130636300 -1.7810879330 -0.4243446624
C -1.0676763580 -2.5999404808 -1.4066916381
C 0.3776344981 -2.3312815211 -1.0010440082
O 1.3581522746 -2.8598998762 -1.4715934854
C -1.4425584690 0.2514250388 1.1385689277
C -1.3757775511 -0.5173306918 2.4330169514
O -2.1624328030 -1.3667902333 2.7854238766
O -0.2845281442 -0.1678690741 3.1595042726
C -0.1216248939 -0.8976414739 4.3953028932
H 0.2453940789 4.2255026079 -1.5353260742
H -0.5114764648 2.9739389084 -2.5300440030
H 0.4184252641 4.2757140400 -3.2961471600
H 2.5169814095 3.4164934912 -2.2745933060
H 1.7626298219 2.1432380703 -3.2295626666
H 1.5601323111 2.3705901076 -0.1549424534
H 1.7263171830 0.0193826308 -2.1059479692
H 1.6295838144 0.2640661724 0.9775679647
H 2.5008228196 -0.9939751361 0.0879269611
H 0.3913893217 -1.8323940691 1.0329980076
H -0.9435916779 0.0804407892 -0.9213814748
H -2.8651270680 -1.4473589942 -0.8468132216
H -2.1361781323 -2.3655384277 0.4741500555
H -1.1790818983 -2.2339275810 -2.4364669266
H -1.2751570096 -3.6731628564 -1.4258719757
H -0.8158772910 1.1448651600 1.2067610314
H -2.4822508166 0.5607346284 0.9891785099
H -0.0234875592 -1.9679458055 4.1955112898
H -0.9824958686 -0.7344131589 5.0484981705
H 0.7880967223 -0.5041675541 4.8480936361
