44
CONF69
C -4.0853422313 1.2217417892 1.7566123766
C -3.0443596425 0.1637826861 1.4927808906
C -3.4381606736 -1.2577105820 1.8568437144
O -2.6594665652 -2.0670929954 0.9506281366
C -2.2399744738 -1.2311743604 -0.1351911105
O -2.8492902114 0.0269275722 0.0618387919
C -2.8130955016 -1.8148540616 -1.4407030774
N -2.4072582871 -1.0373564367 -2.5978876732
C -2.9392401835 0.1077000574 -3.0704328961
N -2.2218699975 0.5599260664 -4.0923686799
C -1.2311776830 -0.3706147624 -4.1974958114
N -1.2985757936 -1.3570891846 -3.3128049873
C -0.7164813422 -1.1037524360 -0.1628598398
C -0.1445780624 0.1657652286 -0.2790104990
C 1.2266306416 0.3656808038 -0.3579603168
C 2.0670072528 -0.7425247623 -0.3203046602
C 1.5423564442 -2.0269498433 -0.2141130190
C 0.1657564109 -2.1889972968 -0.1467040795
Cl -0.4112322242 -3.8518094240 -0.0522606356
O 3.4344600436 -0.6603886183 -0.4511815211
C 4.0804077797 0.4961403632 -0.0411185399
C 3.8920894766 1.0123859740 1.2379296688
C 4.6168291093 2.1296845957 1.6360295237
C 5.5220071541 2.7001970440 0.7472939848
C 5.7214699098 2.1823272801 -0.5262749876
C 4.9871479965 1.0690530217 -0.9238335938
Cl 6.4420159566 4.1141440290 1.2524077406
H -4.2668887630 1.2942375008 2.8330304859
H -5.0245228915 0.9661534364 1.2570362559
H -3.7422022221 2.1965795567 1.4005940028
H -2.0834344753 0.4253075909 1.9604173202
H -3.1747213373 -1.5327949093 2.8812329293
H -4.5093512138 -1.4250655014 1.6816885676
H -2.4683271695 -2.8399432170 -1.5791826086
H -3.9033836839 -1.8006463239 -1.3642508957
H -3.8311012994 0.5557339240 -2.6528337848
H -0.4474313479 -0.3278119239 -4.9434564418
H -0.8057881973 1.0237375653 -0.3185704284
H 1.6290080040 1.3672602221 -0.4559709771
H 2.2082947062 -2.8815200637 -0.1920754392
H 3.1879347545 0.5464936098 1.9192886429
H 4.4832941727 2.5424221773 2.6294361619
H 6.4327130645 2.6398344469 -1.2043350520
H 5.1178316121 0.6448803573 -1.9134300404
