63
CONF91
C -10.9854689439 -1.4746194139 1.9757022694
C -10.3828615077 -0.3666504509 1.1145225964
C -8.8737044808 -0.2223419308 1.3074028749
C -8.2584214700 0.8846776541 0.4532124989
C -6.7508669698 1.0340784928 0.6535783854
C -6.1432723305 2.1415335033 -0.2082436564
C -4.6593067717 2.4056808948 0.0606288121
C -3.7383701475 1.2336364481 -0.2803262825
C -2.2593397548 1.5703207810 -0.0954306271
C -1.3258846048 0.4128904506 -0.4461706061
C 0.1497518233 0.7464540020 -0.2330820956
C 1.0897981140 -0.3988864397 -0.6054315684
C 2.5620396433 -0.0689658680 -0.3652041110
C 3.5080168306 -1.2047523733 -0.7514163569
C 4.9771289045 -0.8783847111 -0.4871446763
C 5.9225099282 -2.0085320191 -0.8963612850
C 7.3865819733 -1.7645223709 -0.5201096892
C 8.0052745898 -0.5451371018 -1.2105744326
C 9.5243718650 -0.4357971112 -1.0432128736
C 9.9633973365 -0.2421825848 0.4036743687
O 11.3639685967 0.0288103529 0.5217755684
H -12.0657801350 -1.5602493423 1.8240016274
H -10.5358505934 -2.4446000752 1.7370724993
H -10.8108436389 -1.2821257794 3.0398455451
H -10.8692267831 0.5893582977 1.3490895420
H -10.5938023959 -0.5657091322 0.0555461703
H -8.3854263580 -1.1786370538 1.0723864017
H -8.6614657668 -0.0239965370 2.3675403604
H -8.7517989957 1.8390548391 0.6850861448
H -8.4655649576 0.6837119405 -0.6073707763
H -6.2653705495 0.0752576541 0.4309783928
H -6.5434637359 1.2456224859 1.7125135988
H -6.2815986429 1.8919973306 -1.2697937663
H -6.7059396633 3.0689088624 -0.0365025401
H -4.3423993568 3.2816846365 -0.5210461051
H -4.5249698542 2.6755957596 1.1176910036
H -3.9159069222 0.9247746835 -1.3206348320
H -3.9861583445 0.3660901178 0.3447043679
H -2.0044685933 2.4420437802 -0.7144620337
H -2.0850499568 1.8749220673 0.9462385557
H -1.5908297526 -0.4655001638 0.1589522673
H -1.4864132621 0.1218400549 -1.4938046691
H 0.4102750510 1.6361554153 -0.8234668431
H 0.3108702607 1.0208210912 0.8189533343
H 0.8191218283 -1.2943952582 -0.0285648004
H 0.9427587039 -0.6606151025 -1.6627078288
H 2.8290690901 0.8345042008 -0.9312702407
H 2.7093642578 0.1808648790 0.6949416006
H 3.2317675481 -2.1131084959 -0.1976911887
H 3.3742111981 -1.4436355143 -1.8159007913
H 5.2392269870 0.0425851116 -1.0239708274
H 5.1152200071 -0.6607115381 0.5819013650
H 5.8480295275 -2.1687260919 -1.9812554516
H 5.5845857007 -2.9405795247 -0.4241488661
H 7.9765121905 -2.6542613467 -0.7801918949
H 7.4578752897 -1.6554768498 0.5700890203
H 7.7706130325 -0.5900078699 -2.2824711403
H 9.9017623075 0.4132393690 -1.6256206608
H 10.0027963096 -1.3393315274 -1.4498617754
H 9.6881303905 -1.1135566229 1.0171599772
H 9.4597372286 0.6323315077 0.8317113445
H 11.8401400258 -0.7305831315 0.1687416731
H 7.5395868865 0.3746457610 -0.8339814982
