28
CONF61
O -2.0743041338 1.6914747398 1.8913032397
C -2.4091961646 0.3666978191 1.4871346896
C -2.2830562762 0.1839987810 -0.0274604357
O -1.0735914947 0.8129857831 -0.5304348171
C -0.1344302154 -0.1858990207 -0.9085781350
C -0.6557077434 -1.5118451894 -0.3563279491
C -2.1627678690 -1.2932154722 -0.4138749550
O -2.5788311364 -1.5357770044 -1.7628514877
N 1.2220583553 0.2013013522 -0.4710645140
C 2.2113610422 0.3313984106 -1.4151476515
C 3.4871022808 0.6599323142 -1.1159838334
C 3.8635743337 0.9059113629 0.2500210722
O 4.9837137577 1.2107488977 0.6566487126
N 2.7982809619 0.7740643190 1.1505792404
C 1.4888481155 0.4364267580 0.8782318314
O 0.6426276935 0.3573275114 1.7598843581
H -1.1259670378 1.7772905264 1.7137110876
H -1.7833819003 -0.3658743610 2.0128440552
H -3.4535797680 0.1941507360 1.7687288293
H -3.1221069885 0.6709138427 -0.5379223439
H -0.0719912124 -0.2239575589 -2.0022206349
H -0.3306070961 -1.6592953979 0.6746761778
H -0.3390824811 -2.3613616829 -0.9643479874
H -2.7090874114 -1.9394815994 0.2862575750
H -3.5222423306 -1.3370124190 -1.8226379092
H 1.8982700634 0.1458733253 -2.4370409378
H 4.2334251279 0.7489573093 -1.8933074973
H 3.0006701366 0.9442665098 2.1291802257
