73
CONF24
C -2.8094787134 1.9831584484 -2.1003107791
C -2.6080663245 0.8302076188 -1.1054212947
C -3.9190115822 0.5216910789 -0.4369200359
C -4.6071401046 -0.6112520112 -0.5651336947
C -5.9193938802 -0.9103695142 0.1003128207
C -5.8388345894 -2.2454529031 0.8520149945
C -7.1149627510 -0.8731813339 -0.8914169488
C -6.9533531662 -1.8323455379 -2.0728202027
C -7.3613022156 0.5497119196 -1.3936568925
C -1.5454320512 1.1220237479 -0.0276471325
C -1.3919622559 -0.0722117792 0.9612756170
C 0.0903957922 -0.1065349772 1.4058454921
C 0.6530280111 1.2125610312 0.8854393317
C -0.0899451768 1.4331932036 -0.4704475750
C 0.1859833074 2.8760509769 -0.9152342295
C 1.6900691988 3.1634619748 -1.0143004569
C 2.4450065455 2.8221158530 0.2834144115
C 2.1299365542 1.4311796610 0.7692662713
C 3.0381281922 0.4819375036 1.0797729706
C 4.4700911578 0.5839408636 0.9463790569
C 5.3827692266 -0.3303755937 1.3514030873
C 6.8523888322 -0.1457259007 1.0609022698
C 7.4535798581 -1.3838202258 0.4012543009
C 7.1981620377 -2.6190206654 1.2591657649
C 5.6935572125 -2.8206124068 1.4833348795
C 5.0557102332 -1.5804515864 2.0653183679
C 4.3010656925 -1.6193237066 3.1689424001
O 8.8523874768 -1.1229974150 0.2377140110
C 0.3886364499 0.4281578528 -1.5263623554
H -1.9311546841 2.1306561385 -2.7326506756
H -3.0129857551 2.9231774661 -1.5746307312
H -3.6616314360 1.7702975905 -2.7529026682
H -2.2976805352 -0.0633355884 -1.6649768598
H -4.3248586299 1.3179535926 0.1934484053
H -4.1934948490 -1.4040176763 -1.1923214539
H -6.1077429015 -0.1186892777 0.8392479338
H -5.0622328749 -2.2049644276 1.6217319605
H -6.7925236460 -2.4821728975 1.3359498705
H -5.5883237219 -3.0697287340 0.1763425722
H -7.9977258696 -1.1892816685 -0.3162307720
H -6.7764883684 -2.8628209626 -1.7503533227
H -6.1182012196 -1.5268583846 -2.7126923725
H -7.8573466837 -1.8307447203 -2.6902498612
H -7.5313683736 1.2417968820 -0.5618511765
H -6.4964280835 0.9136775160 -1.9591359321
H -8.2366852249 0.5874160882 -2.0502367961
H -1.8928770261 2.0012440800 0.5379214663
H -1.6801834858 -1.0072212515 0.4688538694
H -2.0718753269 0.0429748730 1.8098305119
H 0.2081174554 -0.2061586634 2.4889860412
H 0.6101959740 -0.9544269494 0.9480402146
H 0.2694916413 2.0125118354 1.5443774621
H -0.2833434237 3.0953010270 -1.8791331647
H -0.2655603376 3.5585804319 -0.1804214036
H 1.8461470388 4.2210780004 -1.2565040189
H 2.1220759666 2.5889873320 -1.8421397248
H 2.1269091819 3.5314695481 1.0633806173
H 3.5173154148 2.9767073009 0.1427438644
H 2.6671926505 -0.4654690278 1.4602559907
H 4.8629493043 1.4594622915 0.4337873545
H 7.4025872835 0.0192725590 1.9994765282
H 7.0172211002 0.7287649029 0.4241535617
H 6.9777283061 -1.5242008435 -0.5855801811
H 7.6270428182 -3.5081428617 0.7780751302
H 7.7082042589 -2.4848656476 2.2215969596
H 5.5117319954 -3.6815996160 2.1338547787
H 5.2181055651 -3.0361060416 0.5151932014
H 4.1003565597 -2.5572565978 3.6788950564
H 3.8801318658 -0.7144542959 3.5947600964
H 9.2536513186 -1.8975507223 -0.1718079858
H 1.4788493410 0.4239204753 -1.6093805371
H -0.0270273282 0.6710805204 -2.5099917042
H 0.0797213704 -0.5919799845 -1.2807501605
