47
CONF10
C 3.7376377911 -4.3447442643 -1.0812715759
C 3.8892256776 -2.8887229454 -0.8885603499
C 3.0308009115 -1.8888017965 -0.5056176831
C 3.8345579966 -0.7034524457 -0.5336734754
N 5.0700699260 -0.9727655531 -0.8970823940
O 5.0993203694 -2.3601804726 -1.1378902204
C 3.4732512739 0.6788479671 -0.1822630501
C 2.7687257626 0.9442106262 0.9985447266
C 2.4358723031 2.2521401481 1.3315275975
C 2.8025749658 3.3030106784 0.4925393313
C 3.5093942613 3.0432668912 -0.6794763367
C 3.8452224715 1.7367468435 -1.0190088130
C 1.5996021010 -2.0905146880 -0.2129977089
O 1.1744245689 -3.1537071415 0.2415592573
N 0.7866585552 -1.0349328174 -0.5146287193
C -0.5990022641 -1.0093365928 -0.1781621330
C -1.1263896457 0.1169823196 0.7777701832
N -1.9836463947 0.5806332774 -0.3204782644
C -1.5889000283 -0.4122398296 -1.2075968094
O -1.9340208233 -0.6702150807 -2.3364696795
C -3.3150702149 1.0330584303 0.0077454445
C -3.8147027319 0.0923111127 1.1673055911
S -2.2673233402 -0.2758326743 2.1684139806
C -4.8461966098 0.7397842313 2.0854936515
C -4.3703470784 -1.1956501376 0.5595643265
C -3.2802573928 2.4979934109 0.4141509594
O -2.3371942136 3.0408573270 0.9439544759
O -4.4400151437 3.1097353416 0.1213596654
H 2.7203176382 -4.5740067978 -1.4019769612
H 3.9139649996 -4.8681846832 -0.1351226748
H 4.4568331956 -4.7057984909 -1.8193777298
H 2.4921359196 0.1268844239 1.6578232085
H 1.8919572569 2.4510728825 2.2494256514
H 2.5375766064 4.3227834733 0.7528120695
H 3.7952624486 3.8594291031 -1.3351813594
H 4.3836603050 1.5276392402 -1.9373641764
H 1.1981811464 -0.1965521081 -0.9003551943
H -0.9180527035 -2.0062216123 0.1385027498
H -0.3697242732 0.8340955247 1.1055320097
H -3.9716947785 0.9105888009 -0.8592152390
H -5.1315205121 0.0374214863 2.8734671198
H -5.7447408018 0.9870703309 1.5112196757
H -4.4636764085 1.6486894246 2.5572014837
H -4.6135460765 -1.9067192093 1.3531569189
H -5.2843971192 -0.9721817407 -0.0026984798
H -3.6553060639 -1.6741033981 -0.1155291820
H -4.3915045266 4.0296113799 0.4363533271
