55
CONF203
C 4.3732920097 -0.0935795547 -5.5901438535
O 3.0789961336 0.2396176412 -5.0997385820
C 2.7684611673 -0.1457755758 -3.8294237931
C 1.4860830627 0.1984997441 -3.3890535217
C 1.0706343602 -0.1467700427 -2.1168032383
C 1.9214757088 -0.8403238537 -1.2471467196
C 3.1914433451 -1.1834321067 -1.7020630408
C 3.6276525224 -0.8441443712 -2.9806714503
C 1.5228114452 -1.2106030444 0.1557727293
S -0.0754080006 -2.1656553548 0.0819526080
C -0.6547619339 -2.0554076626 1.7646756379
C -0.7650969009 -3.2241645130 2.5233384664
C -1.3066772038 -3.1937586929 3.8019641226
C -1.7141016269 -1.9802262051 4.3494529757
C -1.5917287393 -0.8089375427 3.6151399508
C -1.0795544297 -0.8305008162 2.3149002638
N -1.0168156461 0.3789126644 1.5789693916
C -2.2594111400 1.1366043095 1.3670737917
C -2.9695653825 0.6509823297 0.1011525961
N -4.2607913479 1.3123244743 -0.0746701966
C -4.6875894108 1.2564646525 -1.4704772798
C -5.2853786811 0.7221444821 0.7827609230
C 0.1037720316 0.8012332675 0.9071750568
O 0.1133048857 1.7959877089 0.1995523599
C 1.3714453319 -0.0336646665 1.1366618691
O 2.5272543397 0.7903167892 0.9479751089
C 2.6621190504 1.7957879105 1.8574633539
C 3.7936041922 2.7013966060 1.4762109514
O 1.9407637858 1.9216135574 2.8175855688
H 5.1618419303 0.3711963937 -4.9838150807
H 4.4179679391 0.3013142488 -6.6059240792
H 4.5231538988 -1.1809435804 -5.6153452119
H 0.8319821191 0.7394953670 -4.0639056160
H 0.0747764952 0.1292696311 -1.7915131467
H 3.8663629325 -1.7238556259 -1.0440795625
H 4.6234773118 -1.1302776647 -3.2949965200
H 2.2908320958 -1.8734161318 0.5689238535
H -0.4280266574 -4.1593332303 2.0891269529
H -1.3953317971 -4.1113826660 4.3736833459
H -2.1119553188 -1.9411910955 5.3580655261
H -1.8765986268 0.1422827814 4.0523689151
H -2.0111621057 2.1953913158 1.2705270091
H -2.8912966300 1.0014738729 2.2470872419
H -2.3267892352 0.8966307371 -0.7508754239
H -3.0643048927 -0.4538667695 0.1304027661
H -3.9466259452 1.7518613491 -2.1055715788
H -5.6403429136 1.7842020011 -1.5847695117
H -4.8237531631 0.2199785220 -1.8378453726
H -4.9960343705 0.7866499634 1.8358132379
H -6.2246877840 1.2720920993 0.6654271168
H -5.4752109632 -0.3436918541 0.5449677777
H 1.3689934137 -0.4159191846 2.1626894497
H 3.4385763698 3.3654475464 0.6811221010
H 4.0900576946 3.2986332639 2.3376582437
H 4.6378634697 2.1330178825 1.0811911142
