40
CONF4
C 2.6433633834 -3.2185534427 -0.9347309608
O 3.7963052276 -2.7486606245 -0.1959692711
C 3.8760235016 -1.4408211498 0.0680293313
C 4.9793452150 -0.9844998519 0.7768943235
C 5.0080428415 0.3867211637 1.0245918629
N 4.0502194427 1.2278127442 0.6205754559
C 3.0436647483 0.6661921114 -0.0505623877
N 2.9004171772 -0.6249044825 -0.3549181779
N 2.0537551048 1.5586919949 -0.4514501945
C 0.8621069429 1.3532015333 -1.1313505446
O 0.0582633091 2.2632595851 -1.2846695170
N 0.6672564304 0.0759449464 -1.6198908668
S -0.8642554989 -0.4176364405 -2.1628928914
O -1.2160830346 0.3326326403 -3.3701258881
O -0.7458792354 -1.8771753288 -2.2099210046
C -1.9631744900 0.0427589394 -0.8834618778
C -2.0392040156 -0.4571182713 0.4151589562
N -2.9598758407 0.1571168286 1.1578096087
C -3.4959791430 1.0907659635 0.3471602488
N -2.9043796771 1.0696293135 -0.9220460575
C -3.2672332265 1.9498773599 -1.9047684755
C -4.2497417036 2.8619753022 -1.6358661902
C -4.8793552710 2.9006099058 -0.3747993688
C -4.5063815491 2.0207376015 0.6138140216
Cl -1.0462946207 -1.7057073833 1.0660299830
O 6.0578083890 0.8627438452 1.7037010470
C 6.1023830523 2.2856189407 1.9646612533
H 2.6083504708 -2.7567594874 -1.9253796550
H 1.7217841800 -3.0036693013 -0.3864531416
H 2.7879341874 -4.2944025534 -1.0243178967
H 5.7637667522 -1.6487022027 1.1130101281
H 2.1915920107 2.5155102118 -0.1527452492
H -2.7482756185 1.8712524705 -2.8482780670
H -4.5327840711 3.5568196405 -2.4169231014
H -5.6586343349 3.6302080450 -0.1856521485
H -4.9606222912 2.0207784758 1.5973810347
H 6.1201149611 2.8462425754 1.0269936826
H 5.2425923578 2.5922122815 2.5650829293
H 7.0282810011 2.4380583320 2.5181011102
H 1.3190105676 -0.6547602549 -1.2891045958
