60
CONF6
C -1.3635624178 1.1600382256 -2.8985355642
Si -1.0484889622 2.1950193580 -1.3846426005
C -1.0481892113 4.0203150853 -1.7595716646
O 0.4103978195 1.7285796491 -0.7751848126
Si 1.6056801931 2.1456953342 0.2787676153
C 1.0860752149 3.5748329607 1.3550275323
C 3.1362114503 2.5311395017 -0.7123812820
O 1.8692152733 0.8621245083 1.2744198844
Si 2.4868547307 -0.6595247432 1.3991487362
C 4.2125698019 -0.7052713292 0.6942613443
C 2.4333946039 -1.1239091144 3.1991007564
O 1.5203938606 -1.7256430627 0.5985012534
Si 0.9664341331 -2.1845639967 -0.8848152391
C 1.1897381820 -4.0297543086 -1.0192168201
C 1.8337181469 -1.2610299073 -2.2489925713
O -0.6338546344 -1.8105354871 -0.9853142326
Si -2.0840433269 -2.1069084248 -0.2594703267
C -3.1195455743 -3.1351775109 -1.4133681169
C -1.8202218311 -2.9364117129 1.3907502895
O -2.8593507814 -0.6662950766 -0.0692214196
Si -2.7855073646 0.7623277807 0.7521828928
C -1.6484079994 0.6101090889 2.2208909916
C -4.5192323407 1.2307270120 1.2354371235
O -2.2277122534 1.9386714200 -0.2599272093
H -1.2992261246 0.0967211717 -2.6458126623
H -2.3579011861 1.3612276114 -3.3112415879
H -0.6207699836 1.3737592406 -3.6752571626
H -0.9397331903 4.6125972479 -0.8450418814
H -1.9884398822 4.3120265515 -2.2404567923
H -0.2268964831 4.2801332772 -2.4363326543
H 0.9753435660 4.4930899947 0.7690935986
H 1.8383120436 3.7574769803 2.1304039296
H 0.1312548360 3.3672849061 1.8505784476
H 3.3746418792 1.7135660378 -1.4010379238
H 2.9831391801 3.4385796203 -1.3074006761
H 4.0015536732 2.6928183299 -0.0605855557
H 4.8645276633 -0.0033894935 1.2259215703
H 4.2162690252 -0.4322563931 -0.3658776356
H 4.6423257029 -1.7086332776 0.7889196941
H 1.4027949254 -1.0872462219 3.5700379562
H 2.8150603075 -2.1385783408 3.3544960405
H 3.0368187438 -0.4356008767 3.8002594854
H 0.6774341012 -4.5444441388 -0.1988390966
H 2.2513223571 -4.2970882430 -0.9749021709
H 0.7832767643 -4.4056962187 -1.9644240770
H 1.6989889538 -0.1810780717 -2.1254858156
H 2.9062214541 -1.4815236408 -2.2619602659
H 1.4168325437 -1.5452516197 -3.2217417852
H -3.2483326910 -2.6205712274 -2.3720454733
H -2.6407051615 -4.1013157626 -1.6068579441
H -4.1123126126 -3.3248911612 -0.9914265369
H -1.4047527341 -3.9410430543 1.2532109268
H -2.7673031732 -3.0339766562 1.9329460521
H -1.1249511248 -2.3654387933 2.0145091578
H -2.0213000592 -0.1355215381 2.9312868132
H -0.6407391472 0.3155329554 1.9066750536
H -1.5694417763 1.5689938655 2.7451811062
H -5.1616268543 1.2960002346 0.3503777423
H -4.5354229810 2.2025443894 1.7402766857
H -4.9488290670 0.4866380755 1.9147075016
