61
CONF18
C -1.2877043633 2.3573380311 -2.7442961716
O -1.0103056460 2.3028351187 -1.3332725569
C 0.2781783242 2.3861854945 -0.9202344493
C 1.3526593773 2.5047157913 -1.8094971707
C 2.6569581104 2.5944323933 -1.3384589363
C 2.8853905806 2.5549506294 0.0301754923
Cl 4.5344102398 2.6696283058 0.6395871060
C 1.8399854404 2.4112491939 0.9249524907
C 0.5218001005 2.3295175629 0.4705103088
C -0.5174683393 2.1109948899 1.5380784166
O -0.1918629322 1.5749110978 2.6062343403
N -1.7672042952 2.5582343686 1.2899078102
C -2.8924226235 2.3017830104 2.1792815808
C -4.0249943013 1.5580684214 1.4517284427
C -3.5325219892 0.3171015967 0.7565418310
C -3.6075530372 0.2088732803 -0.6338483585
C -3.0791024849 -0.8907742857 -1.3001812544
C -2.4739262957 -1.8915775129 -0.5495071663
C -2.4056824115 -1.8289337662 0.8419940473
C -2.9408241383 -0.7223426667 1.4854282364
S -1.7055534825 -3.2721965885 -1.3769900231
O -2.1787458870 -3.3352834889 -2.7622349881
O -1.7828765640 -4.4652905008 -0.5194731200
N -0.0288689935 -2.9153991661 -1.3803392749
C 0.4310829001 -1.6554405224 -1.8182931583
O -0.2063586261 -1.0010106314 -2.6435306744
N 1.6291827012 -1.2657497279 -1.3199682890
C 2.3239758797 -1.7784624057 -0.1283243941
C 1.6042577692 -1.3720824105 1.1634329520
C 2.3781880651 -1.8360862298 2.3981041492
C 3.8049776642 -1.2845854784 2.3817302164
C 4.5296142918 -1.6939672262 1.0980333632
C 3.7576872548 -1.2445533112 -0.1440611485
H -0.9406280089 3.3045191151 -3.1705162952
H -0.8232204413 1.5100637256 -3.2577199345
H -2.3724382687 2.2895691716 -2.8247424959
H 1.1850767892 2.5297345483 -2.8786020939
H 3.4801242587 2.6913625298 -2.0374580005
H 2.0227464650 2.3509665428 1.9912877389
H -1.9624508403 2.9327281947 0.3720418701
H -3.2819984920 3.2460754138 2.5785944525
H -2.5177553672 1.7125003820 3.0183184257
H -4.7869450260 1.3036722523 2.1981176446
H -4.4929101573 2.2244151225 0.7199525334
H -4.0690247082 1.0063973634 -1.2081264808
H -3.1220154171 -0.9622731172 -2.3801452245
H -1.9418944329 -2.6282515122 1.4099756193
H -2.8887142489 -0.6631279919 2.5685086243
H 0.4328088130 -3.3576701012 -0.5914827738
H 1.8954108113 -0.3373811158 -1.6257084220
H 2.3805947201 -2.8746951346 -0.1956607034
H 0.5840305710 -1.7740557152 1.1720789669
H 1.5174801582 -0.2778970660 1.1724411878
H 1.8512007898 -1.5155563612 3.3037529851
H 2.4118224430 -2.9343790099 2.4176441307
H 4.3604153808 -1.6366595408 3.2584301844
H 3.7671332311 -0.1873415082 2.4415743694
H 5.5385629465 -1.2676140659 1.0733734011
H 4.6432673984 -2.7866938257 1.0786972801
H 3.7158675896 -0.1467306547 -0.1675919317
H 4.2631758936 -1.5758139251 -1.0582224036
