46
CONF105
C -2.5835302292 0.3805361927 -2.8088114801
C -3.6923197058 0.6855439688 -1.8294667040
C -4.3893379220 -0.4213512096 -1.0791904954
C -3.4555556945 0.5483502444 -0.3264503721
C -2.1587332188 0.1034697285 0.2107020088
O -1.5038101197 -0.8579083036 -0.1458319628
O -1.7564474897 0.9475870272 1.1963600309
C -0.4507780834 0.6739206379 1.7613017389
C 0.6682213147 1.0103708442 0.8101666846
C 1.8473192667 0.2701287323 0.8718217937
C 2.9067142315 0.5959262015 0.0282033297
C 2.7990379786 1.6326139799 -0.8940048993
C 1.6116625160 2.3554067407 -0.9565294106
C 0.5514362469 2.0592916846 -0.1040590068
O 4.0740294174 -0.1446311727 0.0003849286
C 4.5668235865 -0.6678331670 1.1864968184
C 5.0537887859 -1.9700339095 1.1506097832
C 5.6305885870 -2.5105010752 2.2974242013
C 5.7121147296 -1.7587085704 3.4674207120
C 5.2207165878 -0.4537899159 3.4849050035
C 4.6490482896 0.1027104359 2.3445996120
C -4.0417919960 -1.8302376564 -1.2746601848
C -4.8432274852 -2.8567049418 -0.9892453804
Cl -4.3811141658 -4.5123668087 -1.3002442066
Cl -6.4295094954 -2.7002232555 -0.2810631165
C -4.5516005620 1.8629109810 -2.2367377067
H -1.9169226092 -0.4146456610 -2.4749380212
H -3.0186501196 0.0916841308 -3.7716583606
H -1.9814162390 1.2816250080 -2.9672272136
H -5.4344194301 -0.2356345769 -0.8510782394
H -3.9593042491 1.2847887211 0.2904747612
H -0.3949418793 -0.3731202850 2.0719599522
H -0.4102558352 1.3122908435 2.6486270358
H 1.9371179738 -0.5612673500 1.5643619010
H 3.6344998147 1.8563999375 -1.5487893467
H 1.5184084650 3.1660243417 -1.6725233760
H -0.3669967195 2.6347559158 -0.1563210999
H 4.9779180915 -2.5429191639 0.2322558240
H 6.0116242320 -3.5266806617 2.2743171691
H 6.1582843621 -2.1848409003 4.3599433761
H 5.2891630641 0.1420731610 4.3898235875
H 4.2723696835 1.1203180628 2.3500863528
H -3.0734560194 -2.0793582312 -1.6916917426
H -5.0068511534 1.6701212447 -3.2143728327
H -3.9397818293 2.7679088233 -2.3176762434
H -5.3501336566 2.0459992266 -1.5126516061
