40
CONF71
C 3.9170593444 -1.9594829333 -1.8575104088
O 3.8119958916 -0.5146899995 -1.9774760717
C 4.3985829150 0.1922959700 -1.0007870932
O 4.9772015536 -0.2937378058 -0.0549206391
C 4.2527525264 1.6773498740 -1.2863104780
S 4.2683627149 2.7225938809 0.2007939399
C 2.7730967943 2.2255507375 1.0243764244
C 1.8442461063 1.3330223909 0.4870475578
C 0.6793682042 0.9723937873 1.1740383657
C 0.4809791789 1.5323113160 2.4406790532
C 1.3713703799 2.4242729887 3.0064299640
C 2.5099514604 2.7654520861 2.2910217909
Cl 3.6389938061 3.9024461145 3.0049734771
F -0.6153741030 1.1765977999 3.1500827417
N -0.1913319244 0.0233855385 0.6388165741
C -1.3648220246 0.3749957689 0.2643452023
N -2.2818500240 -0.5172787666 -0.2392218328
N -3.5664241796 0.0338005497 -0.3942728512
C -3.6489640857 1.3862279361 -0.2952936650
O -4.6153761809 2.0781201333 -0.5545443419
S -2.0488648404 2.0282503992 0.2769357095
C -4.4860606146 -0.7347950386 -1.2503157709
C -4.5631132823 -2.1716585377 -0.7537083667
C -3.1604640810 -2.7678218177 -0.6666706012
C -2.2778961692 -1.9185359991 0.2363598991
H 3.4441902423 -2.2889579594 -0.9296582165
H 4.9669522837 -2.2597882498 -1.8712518652
H 3.3894615715 -2.3573735470 -2.7227766841
H 3.3796322967 1.8748666465 -1.9129965835
H 5.1386479131 1.9916814765 -1.8520659129
H 1.9831932119 0.8962366639 -0.4943922486
H 1.1784373661 2.8363447990 3.9902348498
H -5.4515080802 -0.2293916497 -1.1982759144
H -4.1156436138 -0.6986049748 -2.2842912614
H -5.0450022530 -2.1940887048 0.2309906827
H -5.1868363650 -2.7439355593 -1.4466630270
H -3.1937995544 -3.7819008894 -0.2576045244
H -2.7137901987 -2.8235954376 -1.6666184139
H -1.2396751557 -2.2504585272 0.2119079594
H -2.6376802427 -1.9421005395 1.2752975847
