34
CONF93
C -2.2531640990 -1.4008933669 2.3719191005
C -1.5265231506 -0.5576512407 1.5399795931
C -0.1386889318 -0.4164344595 1.6426436666
C 0.4953140082 -1.1834395781 2.6281449446
C -0.1953168076 -2.0370059465 3.4808831514
C -1.5722335535 -2.1301901792 3.3358559024
Cl -2.4645114018 -3.2012442441 4.4031780031
Cl 2.2426757691 -1.1090319688 2.8300814947
C 0.6430531386 0.4741732422 0.7026449248
C -0.1485667062 1.7285309685 0.2950629073
N 0.6624507603 2.6106467858 -0.5303785089
C 0.5536963502 2.8596905037 -1.8504935554
N 1.5261904753 3.6737287827 -2.2454710958
C 2.2215013768 3.8881987570 -1.0937156917
N 1.7388989148 3.2617532656 -0.0270633603
C 1.1359912086 -0.3058235791 -0.5114531034
O -0.0482017837 -0.6660924407 -1.2859041305
C 0.1413926237 -1.4763248098 -2.3347469264
C -1.1866343125 -1.7161819670 -3.0749916594
F -2.0884033003 -2.2468236863 -2.1996936231
F -1.6729261982 -0.5164697231 -3.5052970454
F 1.0455400850 -0.9675965647 -3.2395470380
F 0.6473494908 -2.7036871180 -1.9677591854
H -3.3280619601 -1.4868776038 2.2662593223
H -2.0687206456 0.0007728802 0.7858828837
H 0.3294548837 -2.6113432366 4.2343298402
H 1.5449478351 0.8175775528 1.2186523463
H -0.4657246449 2.2726300001 1.1893495035
H -1.0314504601 1.4820907802 -0.2975167417
H -0.2351074493 2.4391176710 -2.4615012309
H 3.0983539587 4.5207929443 -1.0336744937
H 1.7940126780 0.3078894363 -1.1346595608
H 1.6609285681 -1.2137476723 -0.2027671532
H -1.0575164077 -2.3907342911 -3.9282330892
