56
CONF32
C 1.6095948470 1.5260969249 -0.3627956599
C 2.1720965064 0.9721941638 -1.6621247318
N 3.4211746439 0.2441909473 -1.4151097835
C 3.1757094499 -0.8328867559 -0.4482465385
C 2.6079512910 -0.2727742520 0.8469298393
N 1.3583363836 0.4380810891 0.5803303707
C 0.7049612856 0.9137091185 1.7995981586
C 0.0967349483 -0.2227891802 2.6258788840
C -0.6836152803 -1.2134732440 1.7580820306
N -1.6416580400 -0.5313026667 0.8789655162
C -1.6521847215 -0.8159470659 -0.4970496961
C -1.2254406942 -2.0534465689 -0.9978301762
C -1.1851131816 -2.2908331698 -2.3688763670
C -1.6144541323 -1.3214778697 -3.2700773036
C -2.0960115925 -0.1077953581 -2.7859177625
C -2.0973168531 0.1462162841 -1.4175395486
S -2.5891226329 1.7526344288 -0.8277730639
C -3.2726704953 1.2745422745 0.7383232913
C -2.6816108078 0.2085047561 1.4463328384
C -3.1577248841 -0.0669125514 2.7316629893
C -4.1757030397 0.7077178403 3.2878909974
C -4.7661053376 1.7460390701 2.5771364699
C -4.3157237046 2.0114589158 1.2867435510
C -4.6119780841 0.3808382453 4.6819575457
F -5.6548936321 1.1328940017 5.0971395700
F -3.6095850466 0.5649008167 5.5868560105
F -4.9907341768 -0.9214157033 4.8067680051
C 3.9970557253 -0.2647402963 -2.6661283928
C 5.4735247790 -0.5904412528 -2.4855408872
O 6.1792495593 0.5425642785 -1.9632814793
H 2.3150011743 2.2746582981 0.0525611518
H 0.6622082539 2.0372302510 -0.5732415576
H 2.3745104670 1.7974705512 -2.3544060803
H 1.4121652309 0.3132874239 -2.1305368833
H 4.1153796297 -1.3510202415 -0.2308446511
H 2.4657290618 -1.5772957689 -0.8626318267
H 2.4194282585 -1.1049189218 1.5341916220
H 3.3575111163 0.3920960648 1.3230234643
H -0.0989250115 1.5937742202 1.4913457556
H 1.3947130259 1.5001737483 2.4376294847
H 0.8705103390 -0.7928139026 3.1524628901
H -0.5379590375 0.2204455583 3.4009428771
H 0.0291399876 -1.7211200531 1.1096538372
H -1.1679189231 -1.9825973934 2.3747011147
H -0.9217890946 -2.8386241347 -0.3155161978
H -0.8289091751 -3.2512325745 -2.7276690862
H -1.5886749774 -1.5068849415 -4.3384940919
H -2.4491749749 0.6577727158 -3.4701365673
H -2.7342590937 -0.8818648040 3.3061827136
H -5.5599111848 2.3418247698 3.0100974980
H -4.7578904395 2.8199256549 0.7135086178
H 3.9038661105 0.5236179622 -3.4229006981
H 3.4588137195 -1.1563225658 -3.0401977048
H 5.6082186315 -1.4611939104 -1.8267189799
H 5.9146726892 -0.8364692222 -3.4568252920
H 5.5688008327 0.9337341120 -1.3165862915
