58
CONF1
C -1.4646870521 0.1383475400 -3.5054999266
C -0.7330824027 -0.6927088059 -2.4623407382
O 0.0226106040 0.2304279544 -1.6655133111
C 1.0052698981 -0.3922841285 -0.8640239677
O 2.0607303724 -0.9174388242 -1.6377554306
C 2.7954673159 0.1275158021 -2.2984953261
C 3.3550774071 1.1039332612 -1.2848406386
N 2.2585846623 1.6973438635 -0.5059944462
C 2.7560993864 2.7442432965 0.4050483717
C 3.6112770625 2.2685325970 1.5378773213
N 4.9136042070 2.1983667371 1.5057868418
N 5.2563120917 1.6646477418 2.7253844746
C 4.1799790060 1.4008318661 3.5529660339
O 4.1527642283 0.9395362486 4.6777164041
N 3.1145279418 1.8070493607 2.7365115231
C 1.5106311882 0.6319070808 0.1743508893
C 0.3524213709 1.1404870388 0.9970172341
C -0.4570889377 2.1891361957 0.5497242676
C -1.5512501850 2.6099382686 1.2952671871
C -1.8326545195 1.9606617099 2.4887473684
F -2.8970043366 2.3625189421 3.2115161657
C -1.0605023519 0.9140632699 2.9607928519
C 0.0363698799 0.5114129163 2.2028624969
C -1.7032272098 -1.4818855643 -1.6057565856
C -1.9067223514 -2.8375120732 -1.8323436492
C -2.8473278675 -3.5438468370 -1.0823492565
C -3.5881745667 -2.9085087972 -0.0969906111
C -3.3759902261 -1.5492357586 0.1308579259
C -2.4390515930 -0.8383612971 -0.6076523808
C -4.1567619329 -0.8658803355 1.2199486687
F -5.4156024767 -1.3521524192 1.3130465875
F -3.5775083377 -1.0471403067 2.4348497571
F -4.2507091060 0.4660159440 1.0191912736
C -3.0216250373 -5.0115247629 -1.3562477290
F -4.0480398268 -5.5485594411 -0.6660474519
F -1.9056460436 -5.7094874087 -1.0290335337
F -3.2519478099 -5.2436454110 -2.6721032957
H -0.7449552447 0.6870154231 -4.1186447032
H -2.1286548386 0.8554327840 -3.0134850031
H -2.0666772322 -0.5067419370 -4.1509718447
H -0.0440696296 -1.3910671241 -2.9584583242
H 0.5819701962 -1.2562449382 -0.3305552980
H 3.6035640862 -0.3720623612 -2.8386984709
H 2.1441070514 0.6468374414 -3.0138722732
H 3.8880836389 1.9064865397 -1.8086131267
H 4.0848262631 0.5850826916 -0.6365316739
H 1.9010875596 3.2936450023 0.8128357613
H 3.3514880466 3.4435518879 -0.1896503598
H 6.2217640916 1.5364879912 2.9749972037
H 2.1446635156 1.7529946177 3.0060213454
H 2.1751876325 0.0433005015 0.8382820358
H -0.2238958277 2.6653586416 -0.3964824068
H -2.1895802275 3.4211075479 0.9630308190
H -1.3208162417 0.4270128562 3.8931619507
H 0.6500106657 -0.3141563663 2.5561758754
H -1.3329524942 -3.3508237974 -2.5990210754
H -4.3224870343 -3.4554974558 0.4814711776
H -2.2697867460 0.2155354734 -0.4117310728
