59
CONF290
C 6.3762621581 -0.9297654728 -1.8828176924
C 7.6486631621 -1.4013962978 -1.1215906856
C 7.1322676503 -2.2487266885 0.0568491045
C 5.7223392987 -1.7098613953 0.3400589671
C 5.1813755047 -1.4959393795 -1.0882223162
C 5.7811141298 -0.3893685672 1.1116440025
C 4.4249202800 0.1644017969 1.4633915054
O 4.2214254038 1.3650069612 1.5756096245
N 3.3897430380 -0.7498465090 1.6847894049
C 3.5132781743 -2.1327582859 1.5103811488
O 2.5433025221 -2.8627252902 1.6559594299
C 4.8782557801 -2.6691535697 1.1683218807
C 2.0579746297 -0.2128217087 2.0199642692
C 1.2446093090 0.1098496784 0.7693679856
C -0.1311235171 0.6660944373 1.1341639459
C -0.9508048677 0.9776620108 -0.1149621158
N -2.2214140325 1.6579153746 0.1696155172
C -3.1688024030 0.7681640772 0.8550086371
C -4.4808449425 1.4945234020 1.1384641162
N -5.0610233556 1.9960141678 -0.1081819711
C -4.1267195261 2.8787099412 -0.8088632307
C -2.8197267878 2.1408379728 -1.0826344867
C -6.0147558390 1.2865471701 -0.7855697130
N -6.6419864638 0.2867674430 -0.1187543721
C -7.6097597555 -0.3478094159 -0.7768735993
C -7.9789169623 -0.0334892303 -2.0797362565
C -7.2651722110 1.0002027058 -2.6750782837
N -6.2896194588 1.6638786648 -2.0582091172
H 6.3627641873 -1.2809974872 -2.9179858717
H 6.3335793487 0.1630401397 -1.9182855704
H 8.3238725801 -1.9758798076 -1.7612662470
H 8.2143821110 -0.5398993432 -0.7535315367
H 7.7808439154 -2.2071696497 0.9383484326
H 7.0433161632 -3.3002846885 -0.2434362291
H 4.3002003308 -0.8450077616 -1.1239346413
H 4.8853053556 -2.4713383949 -1.4925502327
H 6.3200804235 -0.5410195100 2.0582285975
H 6.3082325134 0.3942890731 0.5620053249
H 4.7301538606 -3.6247971649 0.6578569096
H 5.3850117374 -2.8809958795 2.1217337396
H 2.2099938664 0.6869731545 2.6195484884
H 1.5469891281 -0.9634883751 2.6261673714
H 1.7937662249 0.8385764641 0.1604502819
H 1.1322360760 -0.8011289839 0.1684519282
H -0.0169759788 1.5835362940 1.7259353993
H -0.6504098675 -0.0640205557 1.7661425945
H -1.1203916015 0.0435460368 -0.6880887269
H -0.3630388245 1.6433375395 -0.7605150246
H -3.3803900406 -0.1366995927 0.2484709311
H -2.7393707383 0.4410899028 1.8069593052
H -4.2888811736 2.3566600027 1.7896298174
H -5.1853305549 0.8283053420 1.6339758267
H -4.5711804916 3.2280351973 -1.7395741320
H -3.9319569709 3.7430389530 -0.1614054039
H -3.0227766338 1.3054040608 -1.7838869409
H -2.1140272553 2.8238551846 -1.5700131051
H -8.1107587174 -1.1500036935 -0.2355037830
H -8.7666058032 -0.5640437336 -2.5995655375
H -7.4820827038 1.3087011096 -3.6975245802
