56
CONF4
C 0.5743580663 -1.9603368113 0.6456866836
C 0.0829404095 -1.6639992968 2.0533301001
N 1.2136350513 -1.4014690693 2.9509212165
C 2.0083401120 -0.2885782419 2.4304492491
C 2.4950122279 -0.5921384875 1.0206164089
N 1.3539672043 -0.8328970396 0.1437092190
C 1.7215646328 -0.9859130165 -1.2604480066
C 2.1193696377 0.3487566757 -1.9025083571
C 1.1651036783 1.4730551669 -1.4885015654
N -0.2337141811 1.1056122193 -1.7169203422
C -0.6752596005 0.8745635185 -3.0303343836
C -0.0692546278 1.4996306531 -4.1268656722
C -0.5091238702 1.2489080943 -5.4225374427
C -1.5832092532 0.3977818161 -5.6522866358
C -2.2110615600 -0.2137947902 -4.5715062750
C -1.7449394383 -0.0000951688 -3.2790054793
S -2.4433558693 -0.9290474057 -1.9335113537
C -2.2509625941 0.2666418852 -0.6376611872
C -1.1455546283 1.1329929339 -0.6547680835
C -0.9843410001 2.0101249426 0.4246234037
C -1.8495350287 1.9610020523 1.5105052394
C -2.9384775618 1.0931150019 1.5233735111
C -3.1477209478 0.2677799362 0.4277768318
C -1.6329159905 2.8523728957 2.6962459308
F -2.6360307730 3.7537036947 2.8461287638
F -0.4784390573 3.5530952816 2.6212759726
F -1.5878797076 2.1357408429 3.8511929328
C 0.7708557725 -1.1494152298 4.3273117570
C 0.4065869530 -2.4579804511 5.0193754762
O 1.4796556683 -3.3879214299 4.9402088246
H 1.1636466464 -2.9001138207 0.6517323339
H -0.2910292632 -2.1056887009 -0.0118301461
H -0.4793568463 -2.5277800692 2.4241617156
H -0.6069684133 -0.7974551555 2.0191953457
H 2.8711847415 -0.1357334918 3.0892139139
H 1.4212266583 0.6529042666 2.4122892530
H 3.0675348364 0.2680635267 0.6528697719
H 3.1816109961 -1.4632956383 1.0470504983
H 0.8397061897 -1.3726014081 -1.7853837238
H 2.5342854748 -1.7242726724 -1.4084530295
H 3.1333155559 0.6499594980 -1.6130287828
H 2.1337994996 0.2200839179 -2.9902079734
H 1.2812408122 1.6239183613 -0.4164215510
H 1.4289848036 2.4184722444 -1.9823188618
H 0.7540389266 2.1858544478 -3.9699310682
H -0.0117533416 1.7370946427 -6.2540044674
H -1.9345363296 0.2095851604 -6.6606216576
H -3.0517982315 -0.8821677624 -4.7280548512
H -0.1737756756 2.7260881641 0.4279685387
H -3.6129488320 1.0649244825 2.3716170413
H -3.9956158318 -0.4090766850 0.4068521339
H -0.0793172586 -0.4409611551 4.3676643238
H 1.6088237477 -0.6963530959 4.8708399753
H 0.2112658993 -2.2653217864 6.0800513999
H -0.5149138627 -2.8861481970 4.5913245153
H 1.8517350668 -3.2612701403 4.0534484380
