40
CONF1
C 5.7843234909 -0.3954464188 1.8885885338
O 4.9350004967 -1.4382018531 2.4249320628
C 3.7090041810 -1.5722213182 1.9072479807
C 2.9024544612 -2.5789260075 2.4350131196
C 1.6376506450 -2.6879798997 1.8729382948
N 1.2132599771 -1.8855610378 0.8868139203
C 2.0792754324 -0.9597814444 0.4711717159
N 3.3155103222 -0.7522772492 0.9265800355
N 1.6869789006 -0.0899011159 -0.5426026221
C 0.4886165150 0.0234096290 -1.2300834644
O 0.2937873170 0.9438269529 -2.0137737615
N -0.4399784044 -0.9682980942 -0.9771878284
S -2.0524521438 -0.7865419989 -1.4714575905
O -2.1160696740 -0.7834914080 -2.9348686664
O -2.7557294498 -1.8226830537 -0.7097370125
C -2.5222905962 0.7944407559 -0.8912630271
C -2.6216561627 1.2364029958 0.4264371970
N -2.9454583196 2.5259813450 0.5214706867
C -3.0514399789 2.9540428983 -0.7524558183
N -2.7863470146 1.9241715656 -1.6635183508
C -2.8118997043 2.1304223999 -3.0163169422
C -3.1176408819 3.3789878126 -3.4822734707
C -3.4033517964 4.4358359961 -2.5937540261
C -3.3717732025 4.2273599349 -1.2350216078
Cl -2.3257398791 0.2771682463 1.8268347057
O 0.8209006663 -3.6355563037 2.3432603073
C -0.4995152926 -3.7392602193 1.7582167028
H 5.9693157129 -0.5620984933 0.8247916263
H 6.7122280347 -0.4741649774 2.4538724071
H 5.3269145892 0.5853704268 2.0382330265
H 3.2387883040 -3.2315893226 3.2291112642
H 2.3668329769 0.6185268621 -0.7880699706
H -0.2420984624 -1.6004735243 -0.1820224363
H -2.5868551423 1.2825131435 -3.6457068844
H -3.1354317069 3.5371943410 -4.5535702039
H -3.6468900721 5.4164973163 -2.9865242709
H -3.5815119513 5.0131837674 -0.5192084768
H -0.4294123147 -3.9682664953 0.6912490622
H -0.9777697666 -4.5605483677 2.2903269632
H -1.0595291059 -2.8120673052 1.9090319288
