41
CONF7
C 1.8486604693 2.8774191375 -0.7859444753
C 2.2347045917 1.9636222156 0.3287183138
N 1.2375737850 1.3552848067 0.9783231754
C 1.6208334883 0.4993952762 1.9354227036
N 2.8805642143 0.2597017354 2.3113618767
C 3.7793429803 0.9576126120 1.6187902380
N 3.5320264063 1.8052567445 0.6090429953
O 5.0393045537 0.7508323104 1.9980183546
C 6.0708067262 1.4676645487 1.2884101866
N 0.6620077467 -0.2259639627 2.6066752580
C -0.7245783193 -0.3596893933 2.3914967179
O -1.3414550130 -1.2282810607 2.9751764326
N -1.2694126471 0.5595682862 1.5212708036
S -2.8553978609 0.3725723976 0.9143309194
O -2.9471369679 1.3872583992 -0.1384603233
O -3.7873692862 0.3429552734 2.0338966689
C -2.8605299125 -1.2539194037 0.1380507449
C -3.4793769991 -2.2910624904 0.8233524177
C -3.5945590370 -3.5360212676 0.2137716707
C -3.1152801776 -3.7252362663 -1.0773511362
C -2.5068310128 -2.6775922381 -1.7608329428
C -2.3545406317 -1.4310617370 -1.1542725495
C -1.5786018768 -0.3741981482 -1.8748915441
O -0.5691570667 0.1422416055 -1.4490877716
O -2.1014814843 -0.1357528848 -3.0883932331
C -1.4035342199 0.8686660579 -3.8594035318
H 1.2976767530 3.7335080370 -0.3822438049
H 1.1695144802 2.3496730542 -1.4624707058
H 2.7306911336 3.2304572555 -1.3192898076
H 6.0642617191 1.2027244119 0.2283847174
H 7.0012824140 1.1513489221 1.7593480215
H 5.9323241406 2.5464869097 1.3928616229
H 1.0210678280 -0.8900555324 3.2787935356
H -0.6098727869 1.0831513457 0.9254605190
H -3.8642653086 -2.1096899650 1.8195122347
H -4.0687814826 -4.3522846582 0.7476553109
H -3.2169887108 -4.6917257507 -1.5596999090
H -2.1345493081 -2.8220113031 -2.7692967570
H -1.4169484997 1.8207489268 -3.3228942036
H -1.9524511861 0.9455059678 -4.7970876294
H -0.3695441373 0.5615301157 -4.0365049981
