50
CONF7
C 5.2756494338 -0.6251572776 -0.8515839110
C 4.0088414754 0.1846983866 -1.1270864211
C 3.1266566495 0.3307274086 0.1162925374
C 1.9982048517 1.3725766310 -0.0206550949
C 1.2536848900 1.3511915003 1.3174779136
C 0.4051458811 0.0498876477 1.3503444355
C -1.0392189249 0.4074875634 0.9720784808
N -2.1339262617 -0.5068207360 1.3648221579
C -2.3544556588 -0.6890966831 2.7935177177
C -3.2247116650 -0.0980037099 0.5843372811
C -4.5816329754 -0.3143179863 0.8157204433
C -5.4968957065 0.1644742784 -0.1275473771
C -5.0746245164 0.8428588406 -1.2687028654
C -3.7076154226 1.0576795116 -1.4942520546
C -2.7908006099 0.6062433051 -0.5608097520
C -1.2893800347 0.5657468262 -0.5471884104
C -0.7599402742 -0.6956087801 -1.2556322050
C 0.7227055437 -0.5631017298 -0.9778712212
C 1.0308908965 0.9598785314 -1.1533124381
C -0.3675133087 1.6596110845 -1.1214312787
O -0.7782316831 2.1203092923 -2.4155104809
N 0.9907037560 -0.9651498013 0.4247379665
C 2.4650166226 -1.0091117741 0.5489421722
O 2.8525448147 -1.3080253515 1.8835079584
H 5.8837529634 -0.7299183329 -1.7554935221
H 5.0370460266 -1.6329220265 -0.4938580792
H 5.8872823542 -0.1366074251 -0.0850790431
H 4.2852547858 1.1877712088 -1.4770760303
H 3.4418814895 -0.2823915609 -1.9420259268
H 3.7703398593 0.6585750355 0.9431851911
H 2.4242077746 2.3618576181 -0.2198557592
H 1.9783836033 1.3525461870 2.1375200944
H 0.6227923801 2.2341404337 1.4508619790
H 0.4170660765 -0.3699889193 2.3599468683
H -1.2475358281 1.3848808094 1.4479391611
H -2.6750217359 0.2447327477 3.2862638466
H -3.1193045423 -1.4527625446 2.9581029799
H -1.4342278118 -1.0381212743 3.2674901667
H -4.9308999916 -0.8347934720 1.7012982954
H -6.5582449669 0.0082474762 0.0426792569
H -5.8047197060 1.2101237272 -1.9829255639
H -3.3703210095 1.5810919228 -2.3825304791
H -0.9778666166 -0.6435912030 -2.3290352953
H -1.1871196743 -1.6203455306 -0.8617934655
H 1.3346376329 -1.1940911416 -1.6303523450
H 1.4903803369 1.1586561139 -2.1270800799
H -0.3755683152 2.5587502209 -0.4983918037
H -0.6683793530 1.3984423820 -3.0478536960
H 2.7895916587 -1.8181663614 -0.1249933674
H 2.4554947304 -2.1600921669 2.1128615709
