65
CONF318
C 5.9881389478 -0.9769314988 4.6938297760
O 5.9880096441 -2.2919151459 4.1525315184
C 4.7892975462 -2.7981524709 3.7316943841
C 4.8275380442 -4.0971564437 3.2182720737
C 3.6610920167 -4.6971102705 2.7716516743
C 2.4310339220 -4.0321932566 2.8213187863
C 2.4142905062 -2.7376643337 3.3342688379
C 3.5745954618 -2.1141172788 3.7904969414
C 1.1841623424 -4.6771316672 2.2802050449
C 0.9402639805 -4.3344521874 0.8009164523
N 0.6649433554 -2.9146334762 0.5872132573
C 0.9800686888 -2.5048117673 -0.7803217760
C 0.8070047355 -0.9983002405 -0.9477277945
C -0.6176019333 -0.5889123507 -0.5923748573
C -0.9504554343 -1.0702556298 0.8185361451
C -0.7203071247 -2.5733189930 0.9193375102
N -0.7488103015 0.8699523940 -0.7043077452
C -1.9979484583 1.4014079578 -0.8871755234
N -3.1378983576 0.7503494056 -0.7979901810
C -4.1099689957 1.7129824219 -1.0226832679
C -5.4959978552 1.5889711952 -1.0569202978
C -6.2521539021 2.7257753937 -1.3325090922
C -5.6483586036 3.9653974990 -1.5711049154
C -4.2608949383 4.1125040854 -1.5404952490
C -3.5174943607 2.9764552624 -1.2595597377
N -2.1499694452 2.7559915495 -1.1492176923
C -1.0772271175 3.7135496776 -1.3174632670
C -0.2187209800 3.4252895879 -2.5325798897
C 1.1689548359 3.5490569094 -2.4643326086
C 1.9671025387 3.2845494641 -3.5741644722
C 1.3477296777 2.8886454222 -4.7469349877
C -0.0280168094 2.7491699018 -4.8501228053
C -0.8075848709 3.0197068027 -3.7327474859
F 2.1107288232 2.6175145570 -5.8272156066
H 7.0226023420 -0.7674684487 4.9702321274
H 5.3526852978 -0.9109586100 5.5871447982
H 5.6532947040 -0.2383743870 3.9530384005
H 5.7787406439 -4.6176031167 3.1858736727
H 3.7047707060 -5.7097160273 2.3779166873
H 1.4745198889 -2.1953575475 3.3738853250
H 3.5144631335 -1.1075365629 4.1857730749
H 1.2637571617 -5.7673574058 2.3638075298
H 0.3161833686 -4.3837219835 2.8807805609
H 0.1240457126 -4.9708377533 0.4028133791
H 1.8483482974 -4.5941676701 0.2427236803
H 0.3414825861 -3.0304070809 -1.5228654594
H 2.0194833396 -2.7797253148 -0.9927921906
H 1.5130341571 -0.4813920834 -0.2841861346
H 1.0389915187 -0.7171331100 -1.9836389566
H -1.3164114030 -1.0709573691 -1.2944750838
H -0.3033082382 -0.5486566319 1.5343146040
H -1.9921572578 -0.8325409898 1.0525772905
H -0.9357889722 -2.9079379155 1.9395586608
H -1.4323746027 -3.1025724247 0.2503260804
H -0.0246181267 1.3136108838 -1.2550578697
H -7.3341698201 2.6501631175 -1.3649013661
H -6.2672331143 4.8304929969 -1.7840940118
H -3.8011617226 5.0777989776 -1.7289655938
H -1.5346353417 4.7054045172 -1.4031869150
H -0.4503291985 3.7285775159 -0.4156697782
H 3.0468751355 3.3718326011 -3.5353856483
H -0.4679953811 2.4309779354 -5.7884197261
H -1.8861201257 2.9029525247 -3.7882347804
H 1.6381610652 3.8518898130 -1.5319245533
H -5.9633082136 0.6270160231 -0.8757283354
