24
CONF1
O -2.1014448600 0.3556334603 -2.7389173641
C -2.3530615572 0.1568777251 -1.4201870838
C -1.3508486626 -0.2692661491 -0.5384593281
O -0.1181474734 -0.5227543537 -1.1253721729
C 1.0064291679 -0.3251337162 -0.3503795830
C 1.7784184333 -1.4243366105 0.0021412515
C 2.9500646975 -1.2595074781 0.7314742818
C 3.3283942975 0.0240951502 1.1050071371
Cl 4.8006996952 0.2514769035 2.0333234668
C 2.5798422028 1.1433892339 0.7605016680
C 1.4174020075 0.9573560265 0.0225383468
Cl 0.4802274957 2.3468622076 -0.4633232409
C -1.6158350890 -0.4495079389 0.8087398412
C -2.8965743750 -0.2097213685 1.3049962492
C -3.8823508523 0.2026594587 0.4191592947
Cl -5.5078147716 0.5069049200 1.0275488979
C -3.6360898913 0.3902435160 -0.9356729869
H 1.4480856014 -2.4126102469 -0.2993716828
H 3.5513718347 -2.1175027897 1.0072087771
H 2.8950246320 2.1397071263 1.0458425295
H -3.1127187062 -0.3483323307 2.3572022580
H -4.4118381401 0.7247514929 -1.6146926333
H -1.1582754588 0.2011366554 -2.9032751995
H -0.8266782358 -0.7763900116 1.4779508057
