35
CONF19
C -1.6809256731 2.0245534726 0.7098676925
C -1.7767084770 0.5599460223 0.4222836610
C -2.9363399086 -0.1046718071 0.1471017828
S -2.6696763441 -1.8064013659 -0.0942412529
C -0.9615775880 -1.6514897852 0.1891758996
C -0.6516111565 -0.3362711530 0.4378595785
N 0.6773048955 0.1185135483 0.6876628554
C 1.6540913779 0.3409971359 -0.4255259608
C 2.7801613125 -0.6937775050 -0.3971071234
C 0.9710721224 0.3314548189 -1.7779454687
O 0.1325389278 1.4725095966 -1.8928970123
C -0.8039036691 1.3440728950 -2.9582087140
C 1.0868920503 0.4593761536 1.9409685346
O 2.1795609800 0.9807198391 2.1726138161
C 0.1526732996 0.1259124666 3.0950404720
Cl 0.5530190216 -1.5646348819 3.6712832052
C -0.0578524603 -2.8347386868 0.1287774583
H -2.6509359935 2.5070369852 0.5706086690
H -0.9497810351 2.4955058929 0.0472338751
H -1.3608728205 2.2099022150 1.7425948907
H -3.9359263233 0.3034602995 0.0752733867
H 2.0784091346 1.3379364866 -0.2606106372
H 3.1768586403 -0.8058414117 0.6136521348
H 2.4296395559 -1.6674995064 -0.7501943180
H 3.5930910950 -0.3631329828 -1.0501286016
H 1.7506923945 0.3452184774 -2.5558534064
H 0.3849580957 -0.5918184869 -1.9065614774
H -1.4561451177 0.4722159861 -2.8003423908
H -0.2953674751 1.2395797151 -3.9279572513
H -1.4113207454 2.2522384218 -2.9656328146
H -0.9060252893 0.1206522458 2.8414761705
H 0.3604532792 0.7999857900 3.9249951150
H 0.8299340987 -2.6517672655 0.7391398054
H -0.5559477115 -3.7329294650 0.5036106078
H 0.2695675069 -3.0368138544 -0.8980126631
