60
CONF3
C 0.5688686984 -0.0944924832 -1.4106960346
C 1.4388175573 -0.7541916029 -2.4848859466
C 2.8629760603 -0.2005508172 -2.2092185576
C 2.7644473309 0.6386710330 -0.9119250206
O 2.4735625675 2.0158140226 -1.1812985881
C 4.0012465370 0.5689451174 -0.0395551431
O 4.6947694560 -0.4370581812 0.0372174145
C 4.3105017172 1.8168549939 0.7640884346
O 5.4618978226 1.6726771132 1.6249648302
S 5.3518279895 0.6438119160 2.8929577593
O 6.0807554807 -0.6591889718 2.3078495930
O 3.9399253899 0.3726945559 3.1536258825
O 6.2249140185 1.1698467704 3.9256666332
C 1.5014812265 0.0195427846 -0.1877215082
C 1.8696428203 -1.3515257133 0.3987561685
C 0.8307932384 0.9222772870 0.8468022205
C -0.5868846952 0.4519258756 1.2251562331
O -0.5550643950 -0.7175110901 2.0608885623
C -1.4712853113 0.1802010172 -0.0062197549
C -0.7956223858 -0.6955153257 -1.0840199032
C -1.6581268300 -0.7098308233 -2.3478973544
C -3.1012083070 -1.1290754365 -2.0604160911
C -3.7182498411 -0.3221638281 -0.9617680311
C -4.9335699528 0.2470716836 -1.1261330655
C -5.6905731630 0.8562319330 -0.0418310469
O -6.8004518561 1.3610664734 -0.2284680312
C -5.0787323148 0.7551497557 1.3328621565
C -3.5557735422 0.8156599667 1.2668507382
C -2.9407651339 -0.2516075031 0.3411109178
C -3.0559642028 -1.6542066978 0.9922544008
H 0.3744742764 0.9371673949 -1.7379009475
H 1.1003521195 -0.5126704975 -3.4953663449
H 1.4194077971 -1.8448287036 -2.3843274061
H 3.5926171375 -1.0021031882 -2.0787518990
H 3.2262188579 0.4362876682 -3.0217480158
H 3.0341338922 2.3016094788 -1.9145902107
H 3.4292937919 2.1371013928 1.3306203062
H 4.5820578825 2.6298857659 0.0850887257
H 5.6852167847 -0.7994907777 1.3992152494
H 2.4656931389 -1.9500294209 -0.2934319052
H 2.4471587892 -1.2310936522 1.3202545200
H 0.9663161881 -1.9050130528 0.6505691150
H 1.4231720616 0.9900801369 1.7697981033
H 0.7450297574 1.9358736984 0.4410647743
H -1.0456966900 1.2751900547 1.7921593032
H 0.0869933142 -0.5530624208 2.7632521545
H -1.5789111878 1.1735177294 -0.4742238742
H -0.6754553372 -1.7253872903 -0.7223902494
H -1.2266117491 -1.3846296383 -3.0948725442
H -1.6568463150 0.2991680015 -2.7844889179
H -3.7149461758 -1.0655148895 -2.9639751103
H -3.1022646370 -2.1822243794 -1.7433532747
H -5.4385350331 0.1835918549 -2.0881023958
H -5.4871414719 1.5476236019 1.9665607882
H -5.4111087068 -0.2016546077 1.7606239228
H -3.1398862818 0.7103988869 2.2734920779
H -3.2670391452 1.8085730404 0.8966216295
H -4.0935761571 -2.0008510655 0.9511785323
H -2.7361338674 -1.6156475084 2.0327911165
H -2.4381390143 -2.3914646480 0.4752358454
