35
CONF2
C -2.6803985673 -1.9586928016 -0.7051414911
C -2.3720163686 -2.0001455498 -2.0611494251
C -1.2611661610 -1.3097110005 -2.5369988902
C -0.4878917242 -0.6014855805 -1.6355633518
C -0.7545152990 -0.5345777272 -0.2692765723
C -1.8787381665 -1.2351730406 0.1740704773
C 0.1480411852 0.2162043837 0.7128668779
C 1.6146132127 -0.2992091401 0.5803510193
N 1.6653881272 -1.7513721285 0.6065794020
C 1.9463075677 -2.6108441367 -0.3911131678
N 1.7380059191 -3.8617979084 0.0068924133
C 1.3011145132 -3.7033808891 1.2852851487
N 1.2388251234 -2.4415266956 1.6956400102
C 0.1376111525 1.7304268517 0.5142395560
C 0.9058311105 2.5185681218 1.3796638710
C 0.9294939389 3.9029279007 1.2595390716
C 0.1631505906 4.4859805507 0.2639373262
C -0.6235190125 3.7472198920 -0.5997917600
C -0.6303833550 2.3606840346 -0.4642972382
F 0.1782469146 5.8377479346 0.1392327490
O -0.2891913175 0.0064934829 2.0578869019
F 0.5875189759 0.0737041873 -2.1327858377
H -3.5461982872 -2.4910998607 -0.3258319590
H -2.9901166512 -2.5640554259 -2.7518899637
H -0.9890879676 -1.3130323969 -3.5869914794
H -2.1243971114 -1.2061598283 1.2291122290
H 2.1981347353 0.0913757271 1.4178689281
H 2.0660983784 0.0314780732 -0.3548628873
H 2.3018035659 -2.2864376531 -1.3607833957
H 1.0301057519 -4.5270686624 1.9336061289
H 1.4824183028 2.0549607942 2.1725628900
H 1.5222547837 4.5197908222 1.9260946612
H -1.2209548522 4.2431929365 -1.3568634810
H -1.2580828933 1.7791691913 -1.1297775505
H -0.0483051096 -0.9041553636 2.3076887786
