31
CONF10
C -2.1063698313 -0.5066231939 1.1726596977
C -3.3466198340 0.0593338608 0.9072039314
C -3.7953767391 0.1048235239 -0.4070400275
C -3.0366548570 -0.4007611552 -1.4563593706
C -1.7930526331 -0.9531002426 -1.1805908542
C -1.3111704930 -1.0092556544 0.1338934644
C 0.0071085867 -1.6040494885 0.4204897135
N 1.1252314859 -1.4094226377 -0.1842117658
O 1.0291476906 -0.5402403176 -1.2436498403
C 2.3350794770 -0.1118405289 -1.6718536014
C 2.7611332879 1.1492280275 -0.9354333943
O 1.7833411905 2.1831093452 -1.0484745716
C 1.1600705371 2.3204179956 0.2435583182
C 2.2836781138 1.9238679120 1.1803598944
O 2.9281112969 0.8654050131 0.4473726326
C 0.1314511922 -2.5428927631 1.6046839166
F 0.1989882451 -1.8524075398 2.7774901580
F 1.2206276922 -3.3276257308 1.5518730765
F -0.9503539651 -3.3519953138 1.6931406009
Cl -5.3646221887 0.8146168146 -0.7503877835
H -1.7573528833 -0.5349123095 2.1986370418
H -3.9521407752 0.4579462168 1.7128937870
H -3.4093895924 -0.3676040612 -2.4735935886
H -1.2043087067 -1.3584639837 -1.9940565557
H 2.2344113609 0.1107079587 -2.7376364113
H 3.0676788521 -0.9117564537 -1.5245462239
H 3.6993311688 1.5232532971 -1.3782867437
H 0.8353677754 3.3570247408 0.3566957544
H 0.3018077353 1.6406658511 0.3332792340
H 1.9416009465 1.5183984902 2.1350897747
H 2.9832467688 2.7541525333 1.3477526338
