24
CONF19
C -2.4452114125 -2.4343508654 1.1643609355
O -2.4350052036 -1.1128669055 1.7680871812
P -1.5512136600 0.0612311749 1.1648641843
S -1.6915506012 1.7450412948 2.0769301707
O -1.9078252904 0.0343687317 -0.4049297664
C -1.8576378342 1.2243954246 -1.2249684970
O -0.0717402326 -0.6776790853 1.1991970960
C 0.9667395112 -0.1554623977 0.4633766421
C 1.6452816096 0.9700072059 0.9154613435
C 2.7156520401 1.4813980988 0.1914308658
C 3.1158210137 0.8569237625 -0.9936364994
C 2.4465923559 -0.2775028103 -1.4406893455
C 1.3749775302 -0.7828154749 -0.7168760431
Cl 0.5585355951 -2.2108018005 -1.2841084234
Cl 4.4492462341 1.4632285701 -1.9279436062
Cl 3.5349535934 2.8916323526 0.7862042895
H -2.7700722095 -2.3717046184 0.1226514823
H -3.1600301580 -3.0135437727 1.7488398138
H -1.4512133349 -2.8835504706 1.2248247146
H -0.8200245014 1.5325461756 -1.3849065914
H -2.3143515525 0.9449357422 -2.1751152972
H -2.4171801662 2.0358696389 -0.7531298206
H 1.3209883883 1.4450681139 1.8331428808
H 2.7642685819 -0.7663679794 -2.3530678316
