31
CONF4
C 3.7770829208 0.2979943826 2.3235631305
O 2.9833178457 -0.3054925118 1.2704855379
C 2.2755942960 0.5593147503 0.5316521738
O 2.1538190797 1.7405133462 0.7571327134
C 1.5411017015 -0.1517468532 -0.5665248338
C 2.1698926425 -0.7959782975 -1.6333993103
C 1.4381502432 -1.4855052154 -2.5975375992
C 0.0603209046 -1.5203112005 -2.5121935737
C -0.5761125432 -0.8644810957 -1.4565320358
C 0.1546950026 -0.1839845457 -0.4839558477
O -1.9411344667 -0.9589471019 -1.4343560837
C -2.6438805826 -0.1867466685 -0.5270499170
C -2.8699098201 1.1709389542 -0.7624921863
C -3.6335111532 1.9212143104 0.1240831077
C -4.1697227877 1.2881782582 1.2392667415
C -3.9636792426 -0.0643430461 1.4859000927
C -3.1928898475 -0.7972508930 0.5921080473
Cl -5.1350964394 2.2279779613 2.3567908590
Cl -2.1960689828 1.9310954319 -2.1756787600
N 3.6186748625 -0.7005077791 -1.7978166932
O 4.1679988460 -1.5147439391 -2.5328313342
O 4.1992978907 0.2081409324 -1.2078418544
H 4.2845412849 -0.5325919045 2.8116850660
H 3.1306686655 0.8281478790 3.0266079186
H 4.4987441347 0.9920393410 1.8860161121
H 1.9579253001 -1.9639152919 -3.4182605397
H -0.5364774647 -2.0330909127 -3.2574885224
H -0.3422814476 0.3108587861 0.3427774469
H -3.8071057536 2.9742749060 -0.0592136891
H -4.3947535017 -0.5369315544 2.3599928321
H -3.0092021753 -1.8541204179 0.7526110043
