39
CONF20
N 1.3621378672 -0.1303203394 2.3504007960
C 1.7716533187 -1.2824238999 1.7530706086
N 1.8100172897 -2.3859809623 2.5143622114
C 2.2546839000 -3.5131390857 1.9318964213
N 2.3519906510 -4.6194397998 2.7339514658
N 2.6494587455 -3.6506132664 0.6526617406
C 2.5984539407 -2.5239222920 -0.0775825274
C 2.1819595363 -1.2957907753 0.3953125289
C 2.1557944750 -0.0631767871 -0.4624442530
C 0.7645774042 0.5041602905 -0.6910906194
C -0.2944951891 -0.3558179705 -0.9821764993
C -1.5691420619 0.1666528665 -1.2125721185
O -2.6678023560 -0.5821270126 -1.5031596754
C -2.4957687983 -2.0050735450 -1.5647428702
C 0.5587882467 1.8817780878 -0.6197998710
C -0.7185032589 2.4069900993 -0.8475725463
O -1.0276245702 3.7309174880 -0.7932901872
C 0.0348503004 4.6431214563 -0.4809897517
C -1.7862907042 1.5521748138 -1.1530825991
O -3.0332411665 2.0708100913 -1.4143616342
C -3.8643974673 2.1497502065 -0.2369356506
H 0.9127161424 -0.2164387642 3.2497316196
H 1.0417316631 0.6284496558 1.7672495730
H 2.4136740977 -5.5095701966 2.2648382714
H 1.8168888302 -4.6079142140 3.5881391806
H 2.9149758247 -2.6112963771 -1.1178096942
H 2.6054565868 -0.3103759689 -1.4323499918
H 2.7845878949 0.7207161635 -0.0205761105
H -0.1144026674 -1.4234232838 -1.0186212270
H -3.4798651932 -2.4090716157 -1.8035274484
H -1.7826000346 -2.2808612552 -2.3499066218
H -2.1574419324 -2.4021690243 -0.6006282254
H 1.3928345571 2.5324009363 -0.3846035362
H -0.4191425681 5.6343164304 -0.4872775915
H 0.8278491923 4.5953237720 -1.2359518612
H 0.4529048138 4.4346814300 0.5104841228
H -4.8190208430 2.5709200960 -0.5581852026
H -3.4046008851 2.8037220885 0.5132606810
H -4.0236471909 1.1520605480 0.1881398683
