41
CONF27
C 3.6356967677 2.8160691628 -3.5363826651
C 3.0424600171 1.8657824000 -2.5524652428
N 2.0951044197 1.0312175893 -2.9874315286
C 1.5877499303 0.2215656205 -2.0412528209
N 1.9547948920 0.1915697110 -0.7620907503
C 2.9034123394 1.0819198586 -0.4446809540
N 3.4860173610 1.9356052356 -1.2840296096
O 3.2501200385 1.0561807108 0.8365064899
C 4.2688620684 1.9909156011 1.2757729496
N 0.6004402759 -0.6337207117 -2.4826880988
C -0.1761163400 -1.5781455889 -1.8061513448
O -1.0674628727 -2.1707794896 -2.3925665209
N 0.1544642203 -1.7821861114 -0.4839622522
S -0.8413546012 -2.6928995904 0.5542084222
O -0.2566968399 -2.4713029721 1.8824297884
O -0.9544986993 -4.0491767907 0.0168371538
C -2.4684937215 -1.9288145162 0.5007318160
C -3.4677776861 -2.6019294921 -0.1913744775
C -4.7680540448 -2.1065112824 -0.1638837863
C -5.0610588188 -0.9638065927 0.5716429750
C -4.0574710345 -0.3052868582 1.2761189244
C -2.7425520395 -0.7698093710 1.2391280908
C -1.6822120485 0.0450994608 1.9089386679
O -0.7021703287 0.4815511056 1.3409082427
O -1.9928880135 0.2854262439 3.1864429406
C -1.0541789275 1.1311239596 3.9057008967
H 3.0742619894 3.7577546382 -3.4957368671
H 3.5608572922 2.4211626087 -4.5502014608
H 4.6733770454 3.0360948990 -3.2803534651
H 5.2047776946 1.8076459824 0.7440891217
H 4.3846194188 1.7916331023 2.3401059724
H 3.9363447556 3.0175128728 1.1085993541
H 0.3581947040 -0.5402919614 -3.4611518057
H 0.7845646647 -1.0982561303 -0.0401211555
H -3.2297260953 -3.5081472490 -0.7344955815
H -5.5493898659 -2.6245364201 -0.7092107324
H -6.0759086127 -0.5818990219 0.6039041256
H -4.2857325852 0.5869756474 1.8488110656
H -1.4570827939 1.2108418281 4.9138279634
H -0.9974435415 2.1122714213 3.4293301866
H -0.0678508973 0.6622207815 3.9161960675
