57
CONF277
C -4.5683388493 -2.7487856962 -0.5674525171
C -4.1178486167 -2.2639975440 0.8081816631
C -3.8033771356 -0.7683268771 0.7855640739
N -2.7502953904 -0.4877281615 -0.2052856144
C -3.2426358598 -0.8514071272 -1.5450664048
C -3.5327070864 -2.3498174858 -1.6156838799
C -2.1035629227 0.8554117494 -0.1085964567
C -0.8836087646 0.8813569904 -1.0484581125
C 0.0176810685 2.0937009784 -0.8423883324
N 0.4788856954 2.1821048887 0.5402530870
C -0.6653195271 2.2881665458 1.4398510072
C -1.5704500421 1.0676096843 1.3179140612
C 1.4689506433 3.2412800978 0.7282206230
C 2.8509504720 2.7493305764 0.3121090230
C 3.3598814617 1.6422596461 1.2532661096
C 2.3683510584 0.5403973233 1.5927188894
O 1.9290491931 0.4470313033 2.7377708701
C 2.0520597008 -0.5149952150 0.5840528864
C 1.1885838839 -1.5547919191 0.9543274610
C 0.8265782507 -2.5436110394 0.0519600375
C 1.3504881763 -2.4781771941 -1.2305609749
C 2.2273871939 -1.4850291141 -1.6342108576
C 2.5783882324 -0.5040457242 -0.7127392407
F 0.9934707650 -3.4314704996 -2.1248782076
C -3.1650203193 1.9482456450 -0.4055625672
O -3.9309097302 2.3482634240 0.4771874524
N -3.2799724748 2.3793143801 -1.6815829646
H -4.7248472728 -3.8335447415 -0.5670341448
H -5.5315854369 -2.2818506149 -0.8165687843
H -4.8926767721 -2.4517698201 1.5607303514
H -3.2172661098 -2.8109336942 1.1177235553
H -3.4676196184 -0.4608510003 1.7768631258
H -4.7288024455 -0.2041311726 0.5613273413
H -2.4921088165 -0.5987256754 -2.2969763538
H -4.1666168338 -0.2958152415 -1.8003456777
H -3.8819526342 -2.5976549485 -2.6248949516
H -2.5979261194 -2.9006760783 -1.4450589634
H -0.3118298022 -0.0293932164 -0.8420014792
H -1.1552444677 0.8391492678 -2.1062160632
H 0.8821615681 1.9954023474 -1.5078048691
H -0.5127775887 3.0230831684 -1.1358601434
H -0.2933535762 2.3480078692 2.4690265084
H -1.2471015617 3.2128625487 1.2461887846
H -1.0079223859 0.1702878451 1.5998420753
H -2.3966576097 1.1952679198 2.0182383449
H 1.1999399828 4.1571621866 0.1695589693
H 1.4905759183 3.5077559715 1.7926190917
H 2.8237097323 2.4011974956 -0.7249674711
H 3.5634932392 3.5812874276 0.3415100889
H 4.2620497406 1.1859801355 0.8270916467
H 0.1516251807 -3.3476180439 0.3246735712
H 2.6228283104 -1.4850543711 -2.6439718446
H 3.2679139515 0.2723908407 -1.0225145931
H -4.0237794123 3.0197353232 -1.9142817048
H -2.6791148883 2.0597988836 -2.4213282575
H 3.6375615578 2.0931130690 2.2107641651
H 0.7920900623 -1.5695055170 1.9633854149
