45
CONF14
C 1.2797569764 -3.2806682584 0.7370396594
O 2.0276854535 -2.6722223049 1.8145067913
C 2.3411589550 -1.3796512531 1.6941310453
C 3.0652637725 -0.7838887583 2.7199524109
C 3.3689097693 0.5620765741 2.5332015436
O 4.0725768256 1.1715027538 3.4991596406
C 4.3899725019 2.5629277850 3.3060591313
N 2.9962855491 1.2611315849 1.4582948941
C 2.3016485502 0.5741747049 0.5471407120
N 1.9125387202 1.3236071212 -0.5571748986
C 1.1039221123 1.0137148491 -1.6524918378
O 0.7952979305 1.8785263223 -2.4543349914
N 0.7106058321 -0.3065805827 -1.7396241084
S -0.5357659155 -0.7725749720 -2.7977084991
O -0.1014394592 -0.5639094582 -4.1735299700
O -0.9288488806 -2.0938776612 -2.3137798803
C -1.8535102706 0.3723781668 -2.4533602371
C -2.6920545464 0.4221118957 -1.3367684890
C -3.6182380666 1.4290819369 -1.6578220532
N -3.3711659378 1.9598331280 -2.8546370538
N -2.2997155482 1.3137872582 -3.3303919701
C -1.7499003437 1.7169939407 -4.6230579178
C -2.6269232740 -0.3103088444 -0.0954374618
N -3.6823171197 -0.4623216487 0.7156148340
N -3.1459134267 -1.1299729603 1.7257936869
C -3.9067176101 -1.5563794234 2.8871533660
N -1.8499016121 -1.3873341072 1.5814272954
N -1.5026014301 -0.8692682445 0.4318044628
N 1.9602930955 -0.7122883280 0.5983459168
H 0.3144618238 -2.7857564459 0.6071228160
H 1.1376078546 -4.3152737547 1.0478987890
H 1.8490922991 -3.2420216736 -0.1962502847
H 3.3755682363 -1.3293574019 3.5996055814
H 4.9979491941 2.7006422833 2.4079105453
H 4.9519493743 2.8482379908 4.1953993747
H 3.4784535977 3.1603372596 3.2199238106
H 2.1839399787 2.2958236953 -0.5279968239
H 0.8256426708 -0.8791148446 -0.8914845515
H -4.4401053845 1.7887335624 -1.0554414461
H -1.8647687757 0.9139631014 -5.3535937014
H -2.3156875878 2.5958081057 -4.9305804199
H -0.6910129489 1.9535647512 -4.5082961416
H -4.3233481740 -0.6825471299 3.3938306390
H -4.7178864800 -2.2163155226 2.5706392885
H -3.2227585828 -2.0873247800 3.5491710947
