29
CONF19
C 2.3677485117 -1.6964695677 -0.7668945640
C 2.7100231919 -0.3855533174 -0.1168265682
C 1.8509974583 0.6314431749 0.0433218438
C 0.4071731522 0.6818986048 -0.3618379398
C -0.5201142483 0.4673517170 0.8432261423
C -2.0198693543 0.5996474535 0.5305339598
C -2.8341451691 0.3928617473 1.8149523149
C -2.4374177946 -0.4330639649 -0.4883730630
C -2.9447669645 -0.1849261961 -1.6927577323
O -2.2130904627 1.9396859776 0.0461790058
C 4.1318098681 -0.2865423606 0.3650568423
H 1.3223811227 -1.7669904698 -1.0720823746
H 2.5793299593 -2.5230301395 -0.0768855054
H 2.9988305388 -1.8614695373 -1.6495704027
H 2.2204886604 1.5221092418 0.5546113457
H 0.1818610023 -0.0639572716 -1.1297057943
H 0.1903229703 1.6624061094 -0.8016970142
H -0.2779662263 1.1924823640 1.6308014504
H -0.3444658805 -0.5314345305 1.2604308858
H -2.5122584225 1.1097828173 2.5764902091
H -2.6958407944 -0.6207575865 2.2034086681
H -3.9010022358 0.5399773240 1.6142912348
H -2.3051022508 -1.4643603596 -0.1592997580
H -3.0807689074 0.8303429711 -2.0553780917
H -3.2326018772 -0.9954707888 -2.3553029019
H -3.1620479491 2.0693564835 -0.0839477901
H 4.8332578383 -0.4378991157 -0.4655885281
H 4.3477573722 -1.0720186607 1.1007003703
H 4.3394753828 0.6845978857 0.8222460422
