44
CONF23
C 2.1659154912 3.1416556525 1.9635204273
C 2.7261105146 1.9888609775 1.2026972311
N 1.9526194633 0.8905557597 1.1159066281
C 2.4689386842 -0.1162542873 0.4079426993
N 3.6722830467 -0.1158686418 -0.1854898024
C 4.3470741592 1.0178076428 -0.0196551116
N 3.9329547519 2.1062864906 0.6549200038
O 5.5561633907 1.1478354523 -0.5540739693
C 6.0865241763 0.0243394876 -1.3019649780
N 1.7462192933 -1.2776841931 0.2485751955
C 0.4532400985 -1.6166625049 0.6624079961
O 0.0017832202 -2.7242451594 0.4200440720
N -0.2317064028 -0.6227201934 1.3173400468
S -1.7566916548 -0.8770489067 2.0283825141
O -1.6797426072 -2.0161875245 2.9480931700
O -2.1059327581 0.4497105927 2.5578870135
C -2.8469157592 -1.3107820828 0.6670457226
C -3.4061280227 -2.5874297770 0.7361760597
C -4.3325582386 -2.9829631323 -0.2168985219
C -4.6979123617 -2.0927227524 -1.2222125744
C -4.1243085459 -0.8292675029 -1.2811958963
C -3.1722114273 -0.3989178887 -0.3497867559
C -2.6052536426 0.9989925504 -0.4861947184
C -2.0604232401 1.3316435621 -1.8836582597
C -0.7434870534 0.6735796366 -2.1921834163
F -0.3455378008 0.9304992169 -3.4644546828
F 0.2545863493 1.1127133256 -1.3784892032
F -0.7798954068 -0.6781997594 -2.0591439119
H 1.2608959555 3.5003627522 1.4613158321
H 1.8687149089 2.8151631032 2.9646782401
H 2.8911334283 3.9514840256 2.0329720089
H 5.4404155454 -0.2022748319 -2.1528102717
H 7.0672538393 0.3553830403 -1.6403355083
H 6.1766136792 -0.8513432317 -0.6554856222
H 2.2046588551 -2.0072136922 -0.2826574969
H 0.2613317065 0.2675128622 1.5011186126
H -3.1128090524 -3.2591421273 1.5333876003
H -4.7683540937 -3.9748403770 -0.1678898932
H -5.4342872567 -2.3811646409 -1.9653537079
H -4.4316150749 -0.1505105077 -2.0703239838
H -1.8347768408 1.2033229120 0.2560700819
H -3.4153013828 1.7077782339 -0.2799538718
H -2.7566425946 1.0481979902 -2.6765344557
H -1.8929403560 2.4097584594 -1.9647907505
