47
CONF140
C -3.0514982728 -0.1749964274 2.4966551025
C -2.4319981622 -0.6823665751 1.2142661919
C -3.2645153708 -1.4716579763 0.2299736175
C -2.9257275132 -0.0130169790 -0.0721852131
C -1.9820255766 0.2751191177 -1.1608157094
O -1.2459752067 -0.5084295787 -1.7206272100
O -2.0092565587 1.6119558192 -1.4618840830
C -0.9802152215 2.0378877453 -2.4007149990
C -1.4765195882 3.2814415046 -2.9857927853
N -1.8382542674 4.2721720144 -3.4551242565
C 0.3389859388 2.2263408511 -1.6886645736
C 1.3726600558 1.3195066453 -1.9162516035
C 2.5533794869 1.4275246000 -1.1964222179
C 2.6858575445 2.4519747590 -0.2599464724
C 1.6703821155 3.3615877591 -0.0253444651
C 0.4882896483 3.2448635167 -0.7470410999
F 3.8380076045 2.5442096307 0.4318056390
O 3.5962239961 0.5657760570 -1.4468324926
C 3.9252263543 -0.3523615846 -0.4569655092
C 3.0607719961 -0.6815358814 0.5829646593
C 3.4610950392 -1.6405078765 1.5116674767
C 4.7010481800 -2.2634912944 1.4017213380
C 5.5494680284 -1.9224532198 0.3484711078
C 5.1686105204 -0.9650785850 -0.5850509039
C -4.6613644399 -1.8259331278 0.4919273700
C -5.2372826981 -2.9815452537 0.1590734149
Cl -4.4166279735 -4.2843998078 -0.6560457380
Cl -6.9113433543 -3.3226363416 0.5145661885
C -0.9753987803 -1.0620516415 1.3544057494
H -3.0486343253 -0.9704530289 3.2499784725
H -4.0779512680 0.1714349788 2.3621703363
H -2.4597793887 0.6608948178 2.8835524206
H -2.6956706264 -2.1798392199 -0.3646756486
H -3.7092489593 0.7243464278 0.0667688580
H -0.8808159870 1.2937860810 -3.1986650255
H 1.2659850355 0.5120963490 -2.6326923724
H 1.8140924003 4.1469979844 0.7084807011
H -0.3184915610 3.9490191420 -0.5692260044
H 2.0897668882 -0.2056641645 0.6678200615
H 2.7890993853 -1.8998831946 2.3239868028
H 5.0048162152 -3.0087735751 2.1290642216
H 6.5189677626 -2.4012262960 0.2527538353
H 5.8188999784 -0.6867212879 -1.4076353818
H -5.2931771749 -1.1002874885 0.9950623899
H -0.5584202549 -1.4628623085 0.4291900226
H -0.8757348557 -1.8223867590 2.1362220041
H -0.3857064874 -0.1883762324 1.6556858748
