30
CONF2
O 6.2416335373 -0.4548198617 -0.1935318626
S 5.1020922999 0.2117482808 0.7437384247
O 5.1194408569 -0.3885885624 2.0713668804
O 5.1797785503 1.6455332322 0.5137936190
C 3.5468534163 -0.4258255166 -0.1831090720
F 3.7537065129 -0.2524631630 -1.4951184517
F 3.4307146378 -1.7375525495 0.0896078369
C 2.2626854925 0.3415215533 0.2668492527
F 2.3066784101 0.4916765233 1.6093987762
F 2.2707913847 1.5585872409 -0.3173194411
C 0.9358482865 -0.4064143291 -0.1170948692
F 0.7519073488 -1.4233258346 0.7533434968
F 1.0738367495 -0.9085182707 -1.3645916185
C -0.3264615497 0.5268585311 -0.0839885637
F -0.2511112553 1.3160158769 1.0106169712
F -0.3192202785 1.3000681754 -1.1923132745
C -1.6787145461 -0.2710589200 -0.0327802584
F -1.8634229504 -0.7252564276 1.2265492885
F -1.5964638522 -1.3239645535 -0.8764980351
C -2.9189257832 0.6006939668 -0.4430346701
F -2.7910475972 1.8314877368 0.1026323462
F -2.9394078429 0.7161077738 -1.7896945176
C -4.2822558045 -0.0092987969 0.0315813762
F -4.2726263850 -1.3469921245 -0.1720357536
F -4.4352414277 0.2374795581 1.3495512921
C -5.5296895405 0.5752706069 -0.7110205975
F -5.4789146492 1.9147011098 -0.7230330359
F -5.5914449292 0.1262272434 -1.9685621316
F -6.6366067371 0.1894418495 -0.0632339604
H 6.4509016708 -1.3568313037 0.1203001901
