38
CONF1249
F -1.3887045073 0.7890217843 1.2286946651
C -1.5266171518 -0.1902849327 0.3128611882
F -2.0819068126 -1.2695835311 0.9042877608
C -0.1300991835 -0.5690916431 -0.2682916643
F -0.3194135223 -1.2458454760 -1.4251818810
F 0.5531422305 0.5690138619 -0.5238377306
C 0.7261762584 -1.4650238664 0.6959614334
F 0.5869056660 -0.9982526766 1.9578421288
F 0.2559587863 -2.7312627750 0.6389115292
C 2.2539208240 -1.4758233504 0.3356426212
F 2.3865681628 -1.5394283443 -1.0089719052
F 2.8105612348 -0.3264396767 0.7797605593
C 3.0282891682 -2.6849995310 0.9624840873
F 2.6206039418 -2.8673421509 2.2398439098
F 2.7540296881 -3.7960673510 0.2467380238
C 4.5822315141 -2.5015590573 0.9817328357
F 5.1515032220 -3.6746248805 1.2882698726
F 5.0202503696 -2.1084847466 -0.2225185033
F 4.9461965366 -1.5981655452 1.8975206931
S -2.7514626910 0.4358003175 -1.0453153147
O -3.3507882859 -0.7850346596 -1.5914659634
O -1.9562094220 1.3476810493 -1.8739895637
N -3.9067811897 1.2899119324 -0.2479258119
C -4.9890734974 0.5374478084 0.4462043420
C -6.1498281688 0.1684672537 -0.4691863672
O -6.7961120062 1.3085044400 -1.0367934906
C -3.5699403474 2.6510412292 0.2574420554
C -4.6010181435 3.6773368322 -0.1823685764
H -4.5979080838 -0.3703047679 0.9202390277
H -5.3439235146 1.1965938295 1.2438580070
H -5.8148298425 -0.5226601287 -1.2510150616
H -6.8999045363 -0.3431406401 0.1431528008
H -6.1897206991 1.6979707482 -1.6799453351
H -3.5026285269 2.6023142795 1.3503646637
H -2.5855858446 2.9248252427 -0.1273842492
H -4.3137367642 4.6566657955 0.2123244808
H -4.6448141240 3.7400378309 -1.2737511210
H -5.5968806609 3.4335858675 0.1962806297
