70
CONF6
C -2.7278156801 -0.7844813562 -1.2376179702
C -4.1271663884 -0.2780690235 -1.6460730107
C -5.1367069678 -1.3044978290 -1.2457184893
C -6.3767270845 -1.6837753236 -1.6958777561
N -6.8614546312 -2.7094890072 -0.8883829033
C -5.9352905300 -3.0065475249 0.0851306557
C -5.8987202527 -3.9368358673 1.1267806915
C -4.7497533445 -3.9478357347 1.9136159497
C -3.6598089103 -3.0769305570 1.6902407809
C -3.6966155300 -2.1443054597 0.6586784544
C -4.8494059110 -2.1317394009 -0.1274928778
C -2.6201466759 -1.1455496738 0.2787832949
C -1.2140984261 -1.6648153035 0.6051697902
C -0.1267303090 -0.7152143615 0.0928843064
C -0.3521532125 -0.4539975939 -1.4125945940
N -1.6644059916 0.1325796233 -1.6893264448
C -1.7892647708 1.5145067894 -1.1873507882
C -0.7005993082 2.3957007111 -1.7207440284
C 0.0592035782 3.1833798730 -0.9625695756
C 1.2523658374 -1.3090756339 0.2836880799
O 1.5521226420 -2.3998668354 -0.2106355873
N 2.1860370186 -0.5513003891 0.9413840130
C 3.5569900031 -1.0826127494 1.0938028310
C 4.4314365218 -1.0109370913 -0.1611653084
C 5.0642048754 0.3456470415 -0.4630514632
N 4.1158355083 1.4163825144 -0.8158425194
C 3.4181657402 1.1381950036 -2.0747089867
C 4.8258462020 2.6976693407 -0.9101814245
C 1.8029127640 0.5637888865 1.7920615962
O 1.0281457026 0.4105849097 2.7353785791
N 2.4016436458 1.7012785109 1.4317334444
C 2.3148764848 2.9129735144 2.2377665988
C 3.3749428979 2.9516242027 3.3362910371
H -2.5579839301 -1.7237351714 -1.7885498235
H -4.3474782433 0.6654339729 -1.1298036922
H -4.1385118814 -0.0711951479 -2.7219079723
H -6.9703787563 -1.3194753123 -2.5229460762
H -7.7465155275 -3.1712375955 -1.0182261357
H -6.7173705712 -4.6232970485 1.3179627896
H -4.6849891821 -4.6600770662 2.7309666027
H -2.7934593204 -3.1530050126 2.3395720933
H -2.7949598897 -0.2238451460 0.8563303979
H -1.1036937040 -1.8021127379 1.6863813589
H -1.0762446423 -2.6465015768 0.1330899071
H -0.2032667669 0.2385756511 0.6206983367
H 0.4249430268 0.2133185906 -1.7987700571
H -0.2774911598 -1.4074574002 -1.9501994518
H -2.7468828013 1.9106529201 -1.5468929517
H -1.8062207397 1.5921477569 -0.0861454053
H -0.5649550895 2.3817384009 -2.8028383029
H -0.0520362317 3.1997817857 0.1195163455
H 0.8116656146 3.8359647054 -1.3955862814
H 3.4666916915 -2.1292770912 1.4037083631
H 4.0301370875 -0.5304759417 1.9130468578
H 5.2624230487 -1.7097251007 -0.0050515416
H 3.8746228960 -1.3963701053 -1.0201120333
H 5.8067066077 0.2169270116 -1.2739528474
H 5.6160247027 0.6812537472 0.4253065347
H 4.1214650509 1.0342884075 -2.9206216149
H 2.7272205534 1.9578630631 -2.2954394339
H 2.8359698223 0.2171690612 -1.9939161384
H 5.3000614481 2.9283388216 0.0498381012
H 5.6065761770 2.6823859048 -1.6912464737
H 4.1136719040 3.4944864027 -1.1486703613
H 3.0181166435 1.6646883645 0.5890557202
H 2.4367329764 3.7649351903 1.5604577697
H 1.3118799867 2.9721220469 2.6725079855
H 3.2882888495 3.8773929806 3.9134719937
H 4.3799979969 2.9058804433 2.9051431491
H 3.2513753577 2.1060077235 4.0197666481
