32
CONF4
C -3.6883286541 -0.6808726425 0.1721544277
C -3.6944307096 0.6666172863 -0.0491985639
C -2.4952261060 1.3999440610 -0.1999986150
C -1.2643059631 0.7011968374 -0.1104336927
C -1.2574419296 -0.7085359513 0.1386063402
C -2.4821201646 -1.4111983482 0.2739512351
N -2.5636261785 -2.7610482880 0.4604326960
C 0.0076212995 -1.4207361038 0.2892395759
O 0.0143510428 -2.6582423620 0.5389809925
C 1.2647425703 -0.6931777054 0.1466337603
C 2.4968676615 -1.3757392761 0.3143691122
C 3.6957195462 -0.6504920817 0.1253821361
C 3.6877976118 0.6715388020 -0.2163061008
C 2.4807035256 1.3873568762 -0.3873391799
C 1.2568346588 0.6969917343 -0.1948906931
C -0.0077285944 1.4171025477 -0.3088201468
O -0.0145709611 2.6510825205 -0.5743578795
N 2.5601529085 2.6967632244 -0.7670783841
N 2.5912388146 -2.6856762655 0.6848171771
N -2.5882639232 2.7496188922 -0.3854046175
H -4.6302967740 -1.2138570318 0.2715748917
H -4.6409847771 1.1971214755 -0.1116892095
H -1.6926829300 -3.2320306343 0.6756023884
H -3.4404238260 -3.1390252737 0.7739989308
H 4.6432708187 -1.1661930174 0.2575927052
H 4.6290492495 1.1940952684 -0.3654366374
H 1.6925019837 3.2192700445 -0.7330687981
H 3.4410541329 3.1655642503 -0.6464774738
H 1.7282878692 -3.2160804599 0.6684175421
H 3.4779056341 -3.1445222922 0.5709449483
H -1.7296799718 3.2210694625 -0.6442408289
H -3.4779878381 3.1220944613 -0.6679582344
