39
CONF62
C 5.1035258644 -1.2989263328 0.9579427106
C 3.6677081321 -1.0109618548 1.3921026086
C 3.5699658064 0.2490005011 2.2504282566
C 2.1499568855 0.5758338736 2.7119863469
N 1.2552166919 0.8718446597 1.5909616623
C 0.3778322232 -0.0241617930 1.1150927001
O 0.2009179984 -1.1571431082 1.5625927347
N -0.3876907313 0.4320683195 -0.0009751103
C -0.7184155030 1.7444128969 -0.3768675307
C -0.6138681241 2.9700623198 0.2696223023
C -1.1069758263 4.0848904019 -0.4098019916
C -1.6962490454 3.9717662617 -1.6744639681
C -1.8277261996 2.7353858894 -2.3003909946
C -1.3376556629 1.6134981573 -1.6375084994
N -1.3992743052 0.2813913185 -2.0273974266
C -0.8451606404 -0.3849990003 -1.0511632127
N -0.6681706423 -1.7421291220 -0.9572876848
C -0.8871003037 -2.6635928905 -1.9642205326
O -1.2298745370 -2.4284686732 -3.1018065485
O -0.6463057238 -3.8951019445 -1.4620820700
C -0.8152345681 -4.9767492953 -2.4094192074
H 5.7540951709 -1.4389148697 1.8283009005
H 5.5073275001 -0.4674161443 0.3697617091
H 5.1608310131 -2.2037840921 0.3452692087
H 3.2684326463 -1.8634536874 1.9559700005
H 3.0322294637 -0.8999840326 0.5042387882
H 4.1899249151 0.1332503079 3.1488362496
H 3.9766995691 1.1070302160 1.6978635094
H 2.1586947523 1.4492310394 3.3730048133
H 1.7182288303 -0.2642648917 3.2616157251
H -0.1935006588 3.0776072472 1.2627944829
H -1.0366641554 5.0588699582 0.0629680892
H -2.0683875732 4.8631933765 -2.1689998520
H -2.3054241165 2.6364947547 -3.2695566197
H -1.8456854041 -5.0046324913 -2.7710661957
H -0.5800308550 -5.8818309388 -1.8511620488
H -0.1280030782 -4.8535028454 -3.2496989066
H 1.4615829954 1.6910293248 1.0368894777
H -0.3630269391 -2.0810680695 -0.0480576894
