46
CONF12
C -3.9018522288 -0.1072892195 -1.6181195896
C -2.5219004566 -0.1069226428 -2.2335538284
C -2.5171629486 0.1680666785 -3.7201444250
C -1.5011133818 -1.0575107989 -1.6424655767
C -0.5345427207 -1.7728598606 -2.4798940752
C -0.2883753009 -3.0815355664 -2.4192151978
Cl 0.8845203696 -3.8605662598 -3.4496951267
Cl -1.0798298721 -4.1702917317 -1.3121116195
C -1.3352459743 0.4448174404 -1.4441917739
C -1.5260726040 1.0085799083 -0.0932625565
O -2.0452253082 0.4538404481 0.8549250498
O -1.0510368252 2.2795329135 -0.0468584759
C -1.1638921436 2.9513562653 1.2295912872
C -0.1622562924 2.4536688691 2.2395472070
C 0.9907156417 1.7882146107 1.8345163083
C 1.9004039294 1.3495058630 2.7931453376
O 3.0724214276 0.7080293085 2.4353442653
C 3.0422684055 -0.1754993227 1.3671592601
C 2.0181164341 -1.1098579078 1.2212355785
C 2.0776102081 -2.0157401628 0.1672490199
C 3.1472832647 -1.9955525013 -0.7272398586
C 4.1666039136 -1.0612592994 -0.5598781555
C 4.1183152886 -0.1434710013 0.4870148543
C 1.6999378755 1.5971028692 4.1467132621
C 0.5536425853 2.2830241757 4.5387805342
C -0.3826197066 2.6989081307 3.5969806190
H -4.3728375210 0.8746130602 -1.7416823301
H -3.8774873879 -0.3512840893 -0.5551509257
H -4.5251061739 -0.8477052871 -2.1307812852
H -3.0608193543 -0.6240551062 -4.2469478060
H -3.0233321858 1.1179570749 -3.9216410497
H -1.5084242773 0.2273504322 -4.1337011669
H -1.8472561453 -1.5810954875 -0.7564043692
H 0.0323467967 -1.2102622753 -3.2157710226
H -0.5797541730 0.9429971598 -2.0429920756
H -0.9831878733 4.0038180038 0.9923127610
H -2.1819961636 2.8436552796 1.6149128685
H 1.1776766469 1.5965207547 0.7836187414
H 1.1905855304 -1.1264262644 1.9228695432
H 1.2845338125 -2.7476729724 0.0527060804
H 3.1856837746 -2.7069807419 -1.5453014910
H 5.0046756135 -1.0393600264 -1.2494983018
H 4.9019932530 0.5934394773 0.6289197826
H 2.4278742198 1.2473102765 4.8707450468
H 0.3809707612 2.4743129854 5.5932105063
H -1.2868523414 3.2095185274 3.9150039631
