22
CONF30
C 2.5539660077 -0.2445320637 -0.3890318959
C 1.2249965832 -0.7925221069 0.1170153254
C 0.0426611363 0.1554594279 -0.1413648394
C -1.3040981798 -0.4615292425 0.2803195023
C -2.4817731891 0.4664769003 0.0003911371
O -2.6668042068 0.5598296395 -1.4250987279
O -1.3547702599 -0.7045574642 1.6873168528
O 0.0603218629 0.4344869266 -1.5443525717
O 1.3400538561 -1.0854802230 1.5245774297
O 2.9638005382 0.9007486450 0.3756535832
H 2.4938557370 -0.0137589518 -1.4574827510
H 3.3254260292 -1.0050171744 -0.2327932231
H 1.0219695957 -1.7471958615 -0.3847825199
H 0.1854223399 1.0818326549 0.4446556452
H -1.4465306703 -1.3987582725 -0.2868023497
H -3.3772067110 0.0473481719 0.4781249190
H -2.2796659036 1.4559531644 0.4334372564
H -3.2573914016 1.3023147411 -1.6026227850
H -0.4572887683 -0.9841596497 1.9474741142
H -0.8478627236 0.6815066371 -1.7985427419
H 1.7827581810 -0.3183205933 1.9221225200
H 2.4781603478 1.6698746843 0.0517862311
