44
CONF62
C 4.8977524671 1.9684700958 -1.0125438795
C 3.7146603896 1.0060687268 -1.0292906068
C 2.6509070349 1.3182602202 -2.1473063519
N 1.3947586639 0.8071981690 -1.6553824420
C 1.1255490761 0.9023930242 -0.2171136664
S 2.7614018219 1.1944188707 0.5787078400
C 0.5197228856 -0.5442699231 -0.2840795270
C 0.8537830690 -0.4648115565 -1.7947779568
O 0.7709756026 -1.2070497356 -2.7445946992
N -0.8195344476 -0.8065360172 0.1368087223
C -1.8908777724 -0.2661858459 -0.4950458642
O -1.7705621749 0.4953943844 -1.4529228298
C -3.2700616031 -0.7310461303 0.0028405569
C -3.2894377176 -1.1038232158 1.4676334078
C -3.1709342032 -0.1190710379 2.4534083501
C -3.1586845563 -0.4535510277 3.8006617285
C -3.2676460694 -1.7940769253 4.1830618909
C -3.3867616097 -2.7891478168 3.2138560299
C -3.3982591936 -2.4370061024 1.8681281739
O -3.2642687837 -2.1844079801 5.4918678600
N -4.2371710880 0.3314022976 -0.2900623724
C 2.5344286606 2.8056726939 -2.4435648884
O 3.3694114138 3.1684950916 -3.4327261721
O 1.7993013227 3.5684837413 -1.8589877137
C 4.1989647028 -0.4343769204 -1.1947266829
H 5.4433790797 1.8922492975 -1.9584014383
H 5.5824713330 1.6978736735 -0.2040562254
H 4.5839607166 3.0052029126 -0.8648432677
H 2.9297246351 0.7886142455 -3.0637694451
H 0.4217178250 1.6863523967 0.0714069543
H -0.9731911177 -1.3856267245 0.9496921124
H -3.0865642504 0.9226571741 2.1593439036
H -3.0645373558 0.3199838769 4.5585004667
H -3.4764399928 -3.8259392419 3.5214711673
H -3.4946990259 -3.2156337733 1.1159141383
H -3.1816305039 -1.4069419431 6.0604086208
H -5.1726200500 -0.0560437715 -0.2222911737
H -4.1091866297 0.6259202222 -1.2539752820
H 4.7780213468 -0.5222827690 -2.1213387662
H 4.8403145420 -0.7115760397 -0.3542558106
H 3.3677643052 -1.1432768632 -1.2371125982
H 3.2969912610 4.1310771021 -3.5586198497
H -3.4550607862 -1.6556585721 -0.5769780693
H 1.1946402730 -1.2610890722 0.1923665388
