49
CONF4
C -3.0219246324 1.2839616739 2.7138090735
C -2.9828194829 0.3332758840 1.5349107707
C -1.7457303083 -0.5358928096 1.2750039056
C -2.1332856946 0.6399631013 0.3358363289
C -2.5746494537 0.2314479499 -1.0546650648
C -1.2660213381 1.8798418142 0.3036914234
C -0.5116937394 -0.4778856784 2.0509278004
O -0.0897471252 0.3985985330 2.7750529693
O 0.2229685656 -1.6306792350 1.8111620425
C 1.5460577944 -1.6170366553 2.3633242983
C 1.9840610644 -3.0146771088 2.3770716712
N 2.3643326994 -4.1049764573 2.3868242429
C 2.5180034817 -0.7669416745 1.5531269973
C 3.7483894658 -0.4364339797 2.1167395271
C 4.6461630642 0.3348049967 1.3840011168
C 4.3228882059 0.7746042551 0.1059354509
C 3.0845018854 0.4392557913 -0.4384721666
C 2.1742899897 -0.3386786186 0.2749010454
O 2.8055833260 0.9773978692 -1.6747799635
C 1.8272468280 0.4128099325 -2.4824248731
C 0.9207760614 1.2856403022 -3.0736430375
C -0.0222140561 0.7819803051 -3.9659552401
C -0.0626491528 -0.5803690261 -4.2530429875
C 0.8550248833 -1.4409056235 -3.6519263765
C 1.8119071479 -0.9501250098 -2.7679465791
C -4.3120549660 -0.3774775005 1.3547645844
H -3.2807400776 0.7334455030 3.6248209697
H -3.8056232691 2.0305931029 2.5411404845
H -2.0819399678 1.8010174384 2.8906316164
H -1.9425054197 -1.5160786936 0.8533106247
H -1.6975717634 0.1349373962 -1.7042506105
H -3.1136819127 -0.7163214964 -1.0733039733
H -3.2223517481 1.0063957165 -1.4818539668
H -0.4245677032 1.7228731497 -0.3810043371
H -0.8612186593 2.1570487930 1.2756216431
H -1.8554039634 2.7207870320 -0.0794568315
H 1.5222315330 -1.2561044701 3.3999164573
H 4.0001440568 -0.7740232876 3.1174652184
H 5.6067451355 0.5999701587 1.8135205256
H 5.0103980844 1.3834032177 -0.4714563484
H 1.2122022788 -0.5923389300 -0.1539696127
H 0.9641398555 2.3430801350 -2.8344698748
H -0.7327670874 1.4590868486 -4.4296704800
H -0.8032962875 -0.9705266431 -4.9432955100
H 0.8364483799 -2.5022404659 -3.8789616449
H 2.5378158011 -1.6131535568 -2.3087385176
H -4.2813471082 -1.1560136699 0.5917207446
H -5.0866920834 0.3468971405 1.0780288092
H -4.6098229792 -0.8442376405 2.2996966507
