47
CONF23
C -6.8747006892 2.1011004945 2.7800703157
O -6.1395229411 2.1916542977 1.5394950881
P -5.4311946806 0.8818040205 0.9399671677
S -6.4341988914 -0.7677453066 0.9778615559
O -4.9379682964 1.4223691602 -0.4875019676
C -5.8219287906 1.3419226873 -1.6289813716
O -4.0334772005 0.9190285869 1.7641405446
C -3.0868569451 -0.0974405582 1.6029040628
C -2.1252481466 0.0250284203 0.6083011307
C -1.1526711950 -0.9573779677 0.4777674557
C -1.1340367214 -2.0433317586 1.3565739474
C -2.1030593982 -2.1447102539 2.3576038168
C -3.0921125922 -1.1755232490 2.4749933784
S 0.0438438660 -3.3786499564 1.2042329243
C 1.5112169566 -2.5353528007 0.6324007616
C 2.1798445468 -3.0358657754 -0.4854234912
C 3.3606995819 -2.4415609822 -0.9177601585
C 3.8491742983 -1.3393045856 -0.2344379552
C 3.1944381316 -0.8228886485 0.8782164528
C 2.0287310347 -1.4329240485 1.3187908837
O 5.0544675483 -0.7679195195 -0.6473253487
P 5.0629857100 0.5506764490 -1.5950766600
S 3.8662491048 0.5440972852 -3.1101687840
O 6.6352204332 0.6728669497 -1.8897806733
C 7.2255451731 -0.1122796419 -2.9500113980
O 4.8673294892 1.7006088837 -0.4937483696
C 4.6200754608 3.0609420349 -0.9181728117
H -6.1926780380 1.8893630087 3.6097139858
H -7.6379277270 1.3202679892 2.7130437715
H -7.3394690282 3.0773394525 2.9219303267
H -6.6797190861 2.0073408921 -1.4909652305
H -5.2304580385 1.6690199701 -2.4846862475
H -6.1636164128 0.3129062126 -1.7716507748
H -2.1529652310 0.8773356330 -0.0610639062
H -0.4067963964 -0.8767541833 -0.3054755396
H -2.0831894841 -2.9817896695 3.0476999691
H -3.8584269235 -1.2447163503 3.2381701716
H 1.7681551264 -3.8818980087 -1.0249867294
H 3.8878692387 -2.8067420536 -1.7914709005
H 3.6099407608 0.0357257944 1.3932134214
H 1.5137390329 -1.0527820141 2.1945726212
H 7.1870744423 -1.1768321165 -2.6981269629
H 6.7030695892 0.0700863016 -3.8936683174
H 8.2633206948 0.2150667041 -3.0193585599
H 3.7552251201 3.0979715729 -1.5866564370
H 4.4209737373 3.6241048852 -0.0059544444
H 5.5030326544 3.4657619631 -1.4221647068
