47
CONF128
C -4.2076588775 1.9886129384 2.3338577524
O -3.4079092718 2.0589381632 1.1263863225
C -2.0911830462 2.1179144367 1.3132870842
C -1.2325237340 2.1515309280 0.2647607133
C -1.7032461256 2.0902681735 -1.1362166546
C -1.4585676119 3.1399026441 -2.0288975419
C -1.9066198471 3.0888533581 -3.3442336441
C -2.6110042871 1.9763226804 -3.7994275577
C -2.8563240324 0.9118847917 -2.9379620562
C -2.3976918055 0.9807949510 -1.6304849430
O -2.7156281752 -0.0869978450 -0.7862828740
C -1.7148842618 -0.8476598536 -0.2845563321
C -0.4080121516 -0.8011330220 -0.7527300850
C 0.4721568644 -1.6514170659 -0.0980914150
N 0.1249383710 -2.4784362663 0.8823122173
C -1.1689503872 -2.4420792293 1.2191022141
N -2.1141061846 -1.6679863201 0.6941121013
O 1.7680943725 -1.6271200464 -0.5199153394
C 2.7031835163 -2.3805672825 0.1779312535
C 3.2328269185 -1.9199916581 1.3703201252
C 4.2342179404 -2.6571236226 1.9946343096
C 4.7049630816 -3.8418380621 1.4278842155
C 4.1759349150 -4.3010219873 0.2316084553
C 3.1613919525 -3.5683892879 -0.4040171931
C 2.5916762664 -4.0181280291 -1.6241802772
N 2.1259355859 -4.3926552424 -2.6166372178
C 0.2135069223 2.2502563887 0.4914874715
O 1.0463539024 2.2741988875 -0.4024169849
O 0.5489161299 2.3002203716 1.8018151053
C 1.9659585797 2.3814915239 2.0773762208
H -3.9843697102 1.0645561395 2.8742795115
H -5.2456882181 1.9903559217 2.0042215408
H -4.0092832763 2.8600554882 2.9642067787
H -1.7392269933 2.1482874144 2.3421379600
H -0.9173376582 4.0096760371 -1.6707045316
H -1.7106977181 3.9209171921 -4.0125406936
H -2.9661986047 1.9319183080 -4.8236964976
H -3.3931915926 0.0281207585 -3.2661203253
H -0.0800868416 -0.1445258297 -1.5475623083
H -1.4796525416 -3.1194115358 2.0132742715
H 2.8588320736 -0.9967857667 1.7988720119
H 4.6528798866 -2.3002242436 2.9296722512
H 5.4890026226 -4.4069037444 1.9193864913
H 4.5323937045 -5.2184084470 -0.2229472155
H 2.4892355396 1.5280583783 1.6396469212
H 2.0490317588 2.3648665469 3.1636107764
H 2.3786117323 3.3108018710 1.6762360197
