41
CONF1
C 0.2431264103 -0.2648052700 -2.4449316866
C 0.0963350675 -1.4247655101 -1.5036454756
C 0.0784415836 -2.7271821117 -2.0137133816
C -0.0411944892 -3.8262195055 -1.1775071950
C -0.1561692152 -3.6462511098 0.1971196176
C -0.1520068209 -2.3661839994 0.7460927090
C -0.0153041228 -1.2636136155 -0.1173210559
N -0.0153664947 0.0489216316 0.4655741843
C -1.2786683161 0.7387166326 0.7734394251
C -2.4749636756 0.1226787958 0.0514707007
C -1.1624527423 2.2054215768 0.3571298644
O -0.6161234271 2.6086897969 -0.6431840856
O -1.8516783077 2.9832919296 1.2109898073
C -1.8407030517 4.3898791303 0.8875191541
C 1.0972653903 0.5915181548 1.0544986681
O 1.0208555565 1.5998154601 1.7514370419
C 2.4427436133 -0.0741038101 0.7542645845
O 2.8192631344 0.0645908957 -0.6059365651
C 2.9934160613 1.4334557761 -0.9776912389
C -0.3014770667 -2.1685685438 2.2291742572
H 1.2722653389 -0.2229543390 -2.8163289790
H -0.4169023722 -0.3930046970 -3.3089351243
H 0.0236067558 0.6909102694 -1.9671075852
H 0.1649404578 -2.8688055590 -3.0873365407
H -0.0480364411 -4.8282300546 -1.5947504837
H -0.2550266901 -4.5062790679 0.8528498899
H -1.4467531001 0.7258065237 1.8578523512
H -2.6146420961 -0.9216083284 0.3414452799
H -3.3744433004 0.6819569130 0.3217055286
H -2.3448538141 0.1675528118 -1.0329528873
H -2.4331531213 4.8719810545 1.6646158940
H -2.2811956112 4.5590648931 -0.0986197912
H -0.8141016837 4.7643942217 0.8944880609
H 3.1753413020 0.4013694244 1.4221402566
H 2.4055966204 -1.1500115969 0.9536097530
H 2.0489997175 1.9922144422 -0.9274895888
H 3.3588000412 1.4308429894 -2.0069738412
H 3.7338696850 1.9241091305 -0.3289864875
H -1.2494521280 -1.6747662494 2.4727148218
H 0.4935308664 -1.5405951836 2.6451257959
H -0.2837292968 -3.1292333838 2.7481544689
