27
CONF23
C -4.0332267885 0.3360234261 0.1939278678
C -3.9498391065 1.4408586734 1.2537634144
O -3.8097170764 2.7462621827 0.7145325076
C -2.7935828446 0.1071560223 -0.6461634928
C -1.4935323267 -0.1860857994 0.1667791363
C -0.3308904799 -0.8434297445 -0.6525825486
C 1.0711492106 -0.7052780881 0.0393278796
C 2.1360555524 -1.7121759291 -0.5154380103
C 3.6135648324 -1.3194553713 -0.1849977890
F 4.4109749687 -2.3518706864 -0.4907131965
F 3.7428945704 -1.0437898252 1.1206091679
F 3.9993879221 -0.2573665072 -0.8993634803
F 2.0281117463 -1.7905158671 -1.8618433193
F 1.9078846222 -2.9299240929 0.0203255020
F 1.5274685809 0.5540264412 -0.1511376332
F 0.9333259926 -0.9263322174 1.3670286780
F -0.6034744633 -2.1595148782 -0.8069884193
F -0.2608741059 -0.2575138578 -1.8674692005
F -1.0424302973 0.9923620628 0.6837474394
F -1.8091104595 -1.0119408744 1.1956048105
F -2.5379598244 1.1942510553 -1.4390459596
F -3.0051911197 -0.9602546975 -1.4787145435
H -4.2799469665 -0.6141404744 0.6783826047
H -4.8293759127 0.5716222329 -0.5208039300
H -4.9016440208 1.4441042611 1.7933661739
H -3.1628494981 1.2181799382 1.9874171564
H -2.9410718797 2.8203086262 0.3036985336
