50
CONF36
C 2.6389772967 -2.5532549344 2.1044691588
C 3.2086675052 -1.1686308985 1.7423580662
C 4.6136839409 -1.3351143620 1.1332967910
C 3.3388751669 -0.3515758677 3.0331782179
C 2.2906602475 -0.4960589396 0.7195006768
C 2.0451399956 -1.1237766247 -0.5086167135
C 1.2157330063 -0.5622711349 -1.4691004045
C 0.5988263900 0.6501818671 -1.1899802353
C 0.8272138937 1.3124697136 0.0024865165
C 1.6745729551 0.7368220828 0.9463158137
O -0.2728237230 1.2485773821 -2.1087194280
P -1.5653246802 0.4333825881 -2.6380505934
O -1.3279615776 -0.5663460843 -3.6893379217
O -2.5220090720 1.6285745339 -3.0915558689
C -2.8467638716 2.6963219978 -2.2397710047
C -2.0636521943 3.8408693588 -2.2699112661
C -2.4252131261 4.9184935705 -1.4673915494
C -3.5523267237 4.8432237668 -0.6535269280
C -4.3251535685 3.6854021981 -0.6436605841
C -3.9765071298 2.5995312580 -1.4408554206
O -2.2986891378 -0.0837772729 -1.2921865002
C -1.9292963521 -1.2565780269 -0.6185036874
C -1.6740174543 -1.1399893021 0.7408615730
C -1.3296021010 -2.2782667011 1.4598446423
C -1.2395100055 -3.5127809014 0.8221805635
C -1.5130946955 -3.6073498704 -0.5389973162
C -1.8692842915 -2.4796648653 -1.2736282218
H 3.2888507441 -3.0490672500 2.8338423185
H 2.5591581946 -3.2013067269 1.2273216799
H 1.6385542795 -2.4568377628 2.5376212481
H 5.0353072754 -0.3615727876 0.8636054704
H 5.2839178395 -1.8139090262 1.8556440284
H 4.5932918214 -1.9542676604 0.2319709386
H 3.7737715495 0.6355100643 2.8457995351
H 3.9983757823 -0.8770637647 3.7306338687
H 2.3705215025 -0.2188903518 3.5269334186
H 2.5077850999 -2.0797542236 -0.7307197524
H 1.0271904658 -1.0620320032 -2.4133753714
H 0.3309165855 2.2588411911 0.1906748992
H 1.8362601521 1.2675077575 1.8767505634
H -1.1906494967 3.8758201291 -2.9112274642
H -1.8229933222 5.8210407186 -1.4827257310
H -3.8305560722 5.6872809097 -0.0314999078
H -5.2073909983 3.6240338629 -0.0149250780
H -4.5629625575 1.6881991605 -1.4501601459
H -1.7308456949 -0.1648330632 1.2110051043
H -1.1264806396 -2.1958480122 2.5227069538
H -0.9627782842 -4.3977468927 1.3853541822
H -1.4546187460 -4.5680148243 -1.0404329515
H -2.0757477560 -2.5355042718 -2.3354974686
