39
CONF2
C 3.0835435135 -0.2593687610 -3.3136669280
C 2.4807443761 0.3983237832 -2.0743513199
C 2.1863516909 -0.6179857664 -0.9734615085
C 1.5925047651 0.0012097817 0.2799514932
C 1.1835735542 -1.0162174244 1.3446442042
O -0.1992144167 -1.2672417214 1.0335191569
C -0.7256537006 -0.0249976755 0.6171337160
C -1.8835374964 -0.3219054814 -0.3527415251
N -1.4371451670 -1.0159823884 -1.5439751140
C -1.1722026459 -2.3282834819 -1.7027517179
N -0.7268527496 -2.5614322399 -2.9318915324
C -0.7346043607 -1.3185214892 -3.4930592236
N -1.1560503199 -0.3491472353 -2.6918165274
O 0.3332290655 0.6624385782 -0.0307660446
C -1.2549946413 0.7804403864 1.8128581881
C -1.6027352297 2.1341020322 1.7509324316
Cl -1.4758929304 3.0622748877 0.2613977955
C -2.0843980268 2.8258287545 2.8581696215
C -2.2291599586 2.1382410533 4.0548092587
Cl -2.8306701426 3.0032449664 5.4583213281
C -1.9164772427 0.7907192704 4.1624112139
C -1.4398396173 0.1322457562 3.0364817614
H 3.2867610650 0.4765983186 -4.0978261653
H 4.0254234971 -0.7640236945 -3.0711199205
H 2.3991631817 -1.0101918014 -3.7250410800
H 1.5533848760 0.9151576489 -2.3449065371
H 3.1677505663 1.1614520435 -1.6848725414
H 3.1177233495 -1.1227302153 -0.6816007912
H 1.5040929594 -1.3939147288 -1.3474801305
H 2.2686332682 0.7603741362 0.6908793642
H 1.2776446482 -0.6076263609 2.3589363243
H 1.7204792126 -1.9635182002 1.2696896562
H -2.6116258182 -0.9455782193 0.1738534718
H -2.3671929648 0.6057143785 -0.6599784078
H -1.3244362366 -3.0553380018 -0.9165207787
H -0.4309887787 -1.1214395221 -4.5136063662
H -2.3417145798 3.8752172729 2.7824770567
H -2.0418382106 0.2630678332 5.1004383577
H -1.1937781639 -0.9212056738 3.1045296542
