19
CONF17
C -2.0539819325 0.6741741275 -1.1366495044
C -1.8348943918 0.0351640707 0.2025069256
C -2.7763194558 -0.0422812856 1.1488645653
C -0.4965141163 -0.5520696419 0.5112850990
O -0.1815517487 -1.0703973110 1.5677516416
O 0.3368215266 -0.4434464289 -0.5439861434
C 1.6849867732 -0.9592537192 -0.3714909668
C 2.5886316771 0.0648716522 0.2684602415
O 2.7263430198 1.1716906866 -0.6302790971
H -1.8945971433 -0.0454631444 -1.9459767183
H -3.0716916918 1.0637070175 -1.2070790162
H -1.3489848946 1.4959427944 -1.2983740181
H -2.5702172296 -0.5151063798 2.1031092961
H -3.7681103127 0.3655206019 0.9816931688
H 2.0230581406 -1.1901789198 -1.3844009841
H 1.6582196915 -1.8703478201 0.2315737383
H 2.1705571676 0.3876204336 1.2313287424
H 3.5591116814 -0.4187390271 0.4558690986
H 3.2491341337 1.8485919812 -0.1842061644
