45
CONF53
C 2.4018784270 -1.4525161835 2.3634987525
C 2.1387858790 -2.4800819573 1.2654197395
C 2.8413921501 -2.1620163768 -0.0619785957
C 2.5320241761 -0.7821598237 -0.6369396590
N 1.1078670724 -0.6521125125 -0.9220190782
C 0.5081015776 0.5682792368 -1.0800438202
C -0.8989480702 0.6847905737 -1.0004108946
C -1.5267354724 1.9066151224 -1.2054077526
C -0.8032920585 3.0564862372 -1.4976829786
C 0.5867672888 2.9543644359 -1.5638301256
C 1.2321702838 1.7355714627 -1.3556096015
C 1.4431658890 4.1291315463 -1.8609105239
O 2.6530839942 4.1041139802 -1.9211516947
O 0.7241648646 5.2625845534 -2.0640538551
S -3.3199567896 2.0297120057 -1.0058069022
O -3.6522407534 1.4859788878 0.3112844500
O -3.7011464934 3.3811463453 -1.4165187061
N -4.0141331765 0.9836205198 -2.1393121688
O -1.6618010221 -0.4528952673 -0.8120676172
C -1.6063901819 -1.0765202987 0.4327623034
C -1.9391158967 -2.4269398122 0.4544994083
C -1.9135684551 -3.1078812683 1.6666852555
C -1.5504262024 -2.4478988662 2.8377630761
C -1.2237502394 -1.0957330142 2.7926047892
C -1.2528672106 -0.3957890591 1.5910420744
H 1.9542099897 -0.4830297562 2.1222952431
H 1.9656279579 -1.7805537643 3.3112442290
H 3.4763802890 -1.3021463664 2.5178596148
H 1.0549169959 -2.5816177707 1.1217144597
H 2.4801020738 -3.4677990361 1.5971888448
H 2.5884154057 -2.9269966596 -0.8074303501
H 3.9269225620 -2.2160552954 0.0842993562
H 3.1129544680 -0.6329087168 -1.5577958340
H 2.8498845613 -0.0023995411 0.0722054829
H 0.5238635064 -1.3812825915 -0.5442407654
H -1.3172235186 3.9959066760 -1.6500457772
H 2.3117633922 1.7100835792 -1.4385581341
H 1.3687715128 5.9634977479 -2.2449744234
H -3.6895305798 0.0318440517 -1.9871838470
H -3.8144223611 1.2976102015 -3.0849694769
H -2.2133037021 -2.9235372939 -0.4702864886
H -2.1751191901 -4.1606614339 1.6918084523
H -1.5289585116 -2.9828999622 3.7808265294
H -0.9524663519 -0.5708715809 3.7027305269
H -1.0278178047 0.6639672359 1.5523574987
