41
CONF12
C 5.0159281952 -0.2829850865 -0.2393835214
C 3.9777253469 -1.3761066477 -0.2065328606
O 2.7546682190 -0.8059369913 -0.7742104444
C 1.6953121687 -1.5880849691 -0.7874510596
N 1.7025098480 -2.8374635709 -0.4076137684
C 0.5508267341 -3.5176700753 -0.4599100781
C -0.6648504929 -3.0413834323 -0.8708026511
C -0.6675089108 -1.6960964642 -1.2665382055
N -1.6282978775 -0.8623355482 -1.6631353012
C -0.9490921185 0.2894531173 -1.8513872070
N 0.3608750417 0.2907215008 -1.6160846732
N 0.5463627053 -1.0043081256 -1.2448607978
S -1.7973179582 1.8494536149 -2.2221130674
O -3.1074744536 1.4947065359 -2.7400428156
O -0.8633151227 2.7382037732 -2.9046411121
N -1.9784206078 2.5380163960 -0.6470775491
C -2.5343744532 1.7074239801 0.3602223325
C -1.7326183087 0.9414623765 1.2379087993
C -2.3257031096 0.0695715883 2.1523730291
C -3.7050805296 -0.0369467873 2.2301816100
C -4.5078552211 0.7404547153 1.4064573730
C -3.9288171482 1.6090336726 0.4876331476
Cl -4.9793876466 2.6169778411 -0.4623628043
C -0.2420372055 0.9744571216 1.2580856507
O 0.4488834432 0.0247173239 1.5629404862
O 0.2606391659 2.1942770452 0.9626852370
C 1.7056064821 2.2708381914 0.8966673698
F 0.6468191790 -4.7872466443 -0.0529255735
H 4.7044230749 0.5705051689 0.3684141956
H 5.1945186099 0.0582520253 -1.2620826032
H 5.9552153943 -0.6692925653 0.1661184737
H 4.2623063259 -2.2436554914 -0.8092469090
H 3.7528351080 -1.7135826815 0.8094020948
H -1.5654250748 -3.6379651683 -0.8724957240
H -1.0590368188 2.8862945287 -0.3816315941
H -1.6800452319 -0.5169786582 2.7956683449
H -4.1620152237 -0.7136895251 2.9437536945
H -5.5882862941 0.6904112989 1.4737541840
H 1.9271213797 3.3186060728 0.6967205560
H 2.1388475062 1.9544668264 1.8482729450
H 2.0655354725 1.6340638074 0.0852702995
