47
CONF138
C -6.7584446325 -2.1635588422 0.3492171570
C -6.1899650582 -0.7589850412 0.1599083094
C -4.6684630132 -0.7156665605 0.2960499200
C -4.1002123689 0.6949714827 0.1346876820
C -2.5678909762 0.7742376383 0.2200735291
C -2.0742626435 2.1880205702 0.5597360004
C -2.2920453018 2.5799659272 2.0197840590
C -1.9677779216 0.3001200596 -1.1009939681
O -0.5291289445 0.1644713499 -1.0213519177
C -0.0765572278 -1.0065620203 -0.4959966655
O -0.8084399421 -1.9158720508 -0.1523661451
C 1.3835734751 -1.0619125652 -0.3914236320
C 2.2079779568 -0.0564783199 -0.7409670110
C 3.6570918278 -0.0381982755 -0.6615440333
C 4.4225161398 -1.1204997376 -0.2048877557
C 5.8063731596 -1.0601626976 -0.1454794332
C 6.4672602263 0.1064108092 -0.5496389554
C 5.7250135070 1.1993945940 -1.0096750597
C 4.3474595333 1.1208289612 -1.0620886346
O 7.8149993220 0.2728583116 -0.5331689203
C 8.6152637654 -0.8166009916 -0.0769443733
H -6.3448290699 -2.8563311770 -0.3914164746
H -6.5099428231 -2.5549688272 1.3414780888
H -7.8478902115 -2.1741725354 0.2473320978
H -6.4753712148 -0.3741687147 -0.8281893722
H -6.6381793547 -0.0767558144 0.8947358046
H -4.2208101511 -1.3966046964 -0.4389242579
H -4.3783676305 -1.1066307583 1.2805810288
H -4.5394572682 1.3371589216 0.9076410037
H -4.4263041324 1.1198610626 -0.8273492620
H -2.2266195165 0.0826552657 1.0031855591
H -1.0035687682 2.2518419661 0.3322428442
H -2.5784282871 2.9065361216 -0.1026533179
H -3.3494506610 2.5536321026 2.3008839591
H -1.9269059539 3.5931062495 2.2137157800
H -1.7541476382 1.8975667796 2.6865386626
H -2.3950463713 -0.6563431757 -1.4125924828
H -2.1312747641 1.0486902671 -1.8839994282
H 1.7469260375 -2.0026765298 0.0077184166
H 1.7511019926 0.8517544956 -1.1276255128
H 3.9320408790 -2.0347382955 0.1117414239
H 6.3582556412 -1.9199165706 0.2132991018
H 6.2524139503 2.0947941090 -1.3194290082
H 3.7796552640 1.9743896969 -1.4213786169
H 8.3845808816 -1.0692766004 0.9655923826
H 9.6481754167 -0.4745770898 -0.1476180345
H 8.4791011720 -1.7016089549 -0.7110622411
