29
CONF1
C 5.1775046550 -0.4508907937 -0.3530447371
N 4.2303313102 0.6545178180 -0.2695572920
C 2.9034882764 0.5115022273 -0.1259339751
C 2.3096850515 -0.7939721820 -0.0408858011
N 1.0324589443 -1.0048195901 0.0838441733
N 0.2064103468 0.0448713218 0.1333811061
C 0.6076274637 1.4110139700 0.1135973357
O -0.2265905510 2.3130825882 0.2351780864
C 2.0140555212 1.5762608466 -0.0432173781
Cl 2.6097679658 3.2125444796 -0.0957051743
C -1.1774290831 -0.2859150091 0.2984969048
C -1.5460278982 -1.1834660505 1.2974188931
C -2.8832559258 -1.5346190633 1.4427728332
C -3.8502204298 -0.9893392945 0.6045026142
C -3.4612255201 -0.0963242035 -0.3922436868
C -2.1261442849 0.2633680467 -0.5558447235
C -4.4841234567 0.5263828644 -1.2953483939
F -5.6378406728 -0.1771142548 -1.3356823589
F -4.8101487774 1.7876435923 -0.8958307886
F -4.0386921809 0.6358396678 -2.5719373526
H 4.9642370965 -1.0959449592 -1.2128574590
H 6.1745246970 -0.0276939952 -0.4772598694
H 5.1687611777 -1.0577065588 0.5595656697
H 4.5982089518 1.5922990554 -0.3164412077
H 2.9256771807 -1.6853644417 -0.0847232930
H -0.7887422799 -1.5995166828 1.9524862136
H -3.1740984686 -2.2332093963 2.2197053386
H -4.8927154063 -1.2604737896 0.7238436421
H -1.8254834968 0.9470439880 -1.3399794004
