63
CONF17
C 4.4735610625 3.1803704999 3.1961105764
O 5.1514975050 2.2424309550 2.3345224392
C 4.3711929783 1.7047007855 1.4011833045
O 3.2267407897 2.0174560110 1.1544969240
O 5.0927269820 0.7727326832 0.7431969914
C 4.3157372128 -0.0885088045 -0.0953454615
O 3.6871020237 -1.0749924907 0.6946664581
C 2.4012762809 -0.9017286904 1.0825701875
C 1.3399387682 -1.1055217941 0.2320823876
C 1.4986042576 -1.5513846476 -1.1876775711
O 2.5915711627 -1.6146763564 -1.7366226679
N 0.3370017706 -1.9129417696 -1.8393295966
C 0.4240399525 -2.8603372683 -2.9527639804
C 0.2010011491 -4.2634137940 -2.3920055238
O -1.0429635984 -4.3454311655 -1.6890542397
C -1.1034900491 -3.4390168976 -0.5915851280
C -0.9392507529 -2.0114392176 -1.1200531636
N -1.0585777546 -0.9917199240 -0.0992701806
N 0.0515053509 -1.0791576150 0.7655153493
C -0.1750159296 -0.8740465381 2.0929011426
C 0.8436911423 -0.6683018965 2.9641719001
C 2.2126224082 -0.5841108879 2.5173171284
O 3.1655481524 -0.2770213976 3.2365920100
C -1.1525046180 0.4126387073 -0.6714512135
C -2.2704862363 0.5312728005 -1.6783747915
C -3.6035397291 0.2241869775 -1.3564165222
C -3.9889413807 -0.2697298791 -0.0013366732
S -3.9349532682 1.0575345171 1.2638964379
C -2.2816848007 1.7262492850 1.2795459324
C -2.1320469387 2.6848310584 2.2941525736
C -0.9273854221 3.3349282831 2.5029310189
C 0.1651804208 3.0485144722 1.6915831320
C 0.0182115840 2.1173031203 0.6778747703
C -1.1849354422 1.4356587480 0.4452447342
C -4.5737032853 0.4116952954 -2.3342909338
C -4.2489526822 0.8778505714 -3.6030508002
C -2.9387366232 1.1720656053 -3.9252965987
C -1.9569608397 0.9925070024 -2.9567561970
F -5.2261007565 1.0301171839 -4.5089314687
F -5.8616891066 0.1346868482 -2.0666066627
H 5.2230191511 3.4939522105 3.9219560469
H 3.6370569265 2.6824220178 3.6932278352
H 4.1132082421 4.0375126157 2.6203694919
H 5.0362194455 -0.5965853175 -0.7330286661
H 3.5867570217 0.4891817477 -0.6675086123
H 1.4072569312 -2.7687249323 -3.4195217428
H -0.3540227164 -2.6147289238 -3.6858631328
H 0.1443674780 -5.0033370921 -3.1951387126
H 1.0343523496 -4.5247505183 -1.7192846762
H -0.3199372724 -3.6662120438 0.1501864925
H -2.0870624065 -3.5681878099 -0.1303128747
H -1.7383614616 -1.8326251540 -1.8507649179
H -1.2222341862 -0.8678144597 2.3738012860
H 0.6320315384 -0.5075587145 4.0141106673
H -0.2255991968 0.6113608807 -1.2254929390
H -3.3561590600 -1.0979048474 0.3185845591
H -5.0321498127 -0.5923574635 0.0151745019
H -2.9810751751 2.9111618253 2.9332321799
H -0.8461453419 4.0610920546 3.3052904858
H 1.1279725452 3.5204544593 1.8459685277
H 0.8814776205 1.8832461385 0.0626143706
H -2.7034474707 1.5333321832 -4.9198264511
H -0.9243595989 1.2208200478 -3.2002672275
