47
CONF35
C -4.8764488285 1.3568977022 -0.3076305350
Si -3.5910302034 0.2909961008 0.5429953454
C -4.3355258888 -1.3439300114 1.0644410123
C -2.8838020803 1.1979427361 2.0255786622
O -2.3851939699 -0.0429686766 -0.5422489034
Si -0.9315799129 0.5600582090 -1.0139496148
C -0.2836603987 -0.5600437382 -2.3568659244
C -1.1148469033 2.3263826365 -1.5825135886
O 0.0992033277 0.5761878428 0.2725532599
Si 0.9272295810 -0.5304489422 1.1704182197
C 1.5866863476 0.3684603159 2.6654349998
C -0.1786569326 -1.9608330654 1.6283116548
O 2.1637315202 -1.1442392111 0.2792612312
Si 3.5366769604 -0.6164288260 -0.4824736951
C 3.8333188775 -1.7578831938 -1.9342599704
C 4.9624125182 -0.7071292612 0.7304921316
C 3.3064420509 1.1516286655 -1.0682220672
H -5.7197414494 1.5718591099 0.3579499536
H -4.4484418881 2.3144592135 -0.6241273962
H -5.2709053807 0.8561974389 -1.1983192297
H -4.7215401564 -1.8892273084 0.1965959841
H -3.5874325159 -1.9786849994 1.5511209413
H -5.1640824608 -1.1994052613 1.7663135194
H -2.4081020345 2.1393760800 1.7299763226
H -2.1260312861 0.5938329102 2.5352065448
H -3.6700054973 1.4341091115 2.7514949622
H 0.6574512894 -0.1842350174 -2.7711615844
H -1.0054659054 -0.6419420306 -3.1761702540
H -0.0976426106 -1.5676038978 -1.9696045073
H -1.8187891555 2.4039642722 -2.4176354812
H -0.1530070707 2.7361176128 -1.9085063044
H -1.4838912119 2.9598622197 -0.7685820506
H 2.2087854060 1.2189360567 2.3661914309
H 2.1956565067 -0.2940096138 3.2893511349
H 0.7691870066 0.7590026065 3.2806781013
H -0.6535530326 -2.3876217685 0.7383246322
H 0.3962329109 -2.7538135967 2.1177064215
H -0.9740885253 -1.6481365280 2.3124712667
H 3.9509590205 -2.7932519958 -1.5972165999
H 2.9906184560 -1.7292116159 -2.6333286393
H 4.7381364347 -1.4783496519 -2.4848570797
H 5.0842077993 -1.7258330508 1.1139626612
H 5.9062333656 -0.4101718523 0.2599825271
H 4.7939955537 -0.0451731604 1.5871011977
H 4.2122974982 1.5196153137 -1.5630978761
H 2.4792080729 1.2295362748 -1.7812905947
H 3.0847949965 1.8251532635 -0.2332416270
