45
CONF14
C 10.2213785282 0.3263890582 -2.5495594596
C 9.6127362290 -0.1337238483 -1.4573294806
C 8.4280926184 0.5525732526 -0.9036449885
O 7.9104232769 1.5588559918 -1.3468511367
O 7.9789178856 -0.1005801852 0.1981012878
C 6.8150444797 0.4622285282 0.8472637387
C 5.5565125412 0.0091634614 0.1093377754
C 4.3120548975 0.4468315430 0.8430879025
C 2.9981903228 0.0975912486 0.0766694982
C 1.6826793865 0.2246191327 0.9200923570
C 0.3859936403 0.3066074385 0.0367068447
C -0.9247770546 -0.0281112977 0.8354077914
C -2.2267002828 0.4824233043 0.1185384788
C -3.5288914537 -0.2280715872 0.6347179088
C -4.8405755391 0.5601072761 0.2805962491
C -6.1285887407 -0.3293671327 0.3589818147
C -7.4628844129 0.4842074392 0.4339632635
F -8.4884855279 -0.3603232658 0.2627948645
F -7.4995434082 1.4130416298 -0.5313102802
F -7.5949782468 1.0802375466 1.6234790291
F -6.1858482516 -1.1102994752 -0.7404224149
F -6.0676117363 -1.1143932075 1.4596349014
F -4.9713378077 1.5929317183 1.1427528184
F -4.7367766595 1.0469067056 -0.9767859675
F -3.5987983776 -1.4577192219 0.0773048164
F -3.4553787986 -0.3532297501 1.9786834466
F -2.3438493782 1.8119211126 0.3331767868
F -2.1123922491 0.2548621106 -1.2089595568
F -1.0082072864 -1.3696735628 0.9826828247
F -0.8531863669 0.5488212855 2.0557276293
F 0.4965483856 -0.5689988604 -0.9875532157
F 0.2814218188 1.5599653739 -0.4611576468
F 1.5857481479 -0.8586983632 1.7273807174
F 1.7451424500 1.3369509416 1.6851557569
F 3.0870796882 -1.1822061736 -0.3640701996
F 2.9100860061 0.9188825640 -1.0012795249
F 4.3248454577 1.8006656147 1.0492108790
F 4.2389519829 -0.1447585297 2.0800487375
H 11.0914410287 -0.1749455866 -2.9595931881
H 9.9558128880 -1.0214948572 -0.9355296716
H 6.8986151666 1.5508975736 0.8693499765
H 6.8426053583 0.0635931642 1.8624137830
H 5.5460907482 -1.0810468288 0.0301997743
H 5.5321450885 0.4354072603 -0.8978791318
H 9.8579155750 1.2166241789 -3.0545715031
