60
CONF10
C -1.8601127673 -2.8848224733 -1.5536471596
C -1.3771807930 -2.3533823192 -0.2465075441
C -1.1086795388 -1.0308021916 0.1044782760
N -0.6579597593 -1.0482740346 1.3959240276
N -0.6164559015 -2.2901202854 1.8909554841
C -1.0364136891 -3.0928480293 0.9036125621
C -1.1053355106 -4.5697397777 1.0909083574
C -0.3501648773 0.0841333282 2.2512278300
C -1.2366071112 0.1676250041 -0.6911699772
C -0.3082568635 1.1410299209 -0.8839279436
C -0.7306592075 2.3212162742 -1.5588215563
N -1.0537058357 3.2978412350 -2.0933901753
C 1.0966516915 1.0814404916 -0.4392035527
C 1.8097930654 -0.1242713163 -0.4099034778
C 3.1175565481 -0.1544398070 0.0428334961
C 3.7781859650 1.0040888001 0.4783921340
C 3.0664125015 2.2037747389 0.4184170181
C 1.7527078300 2.2464296115 -0.0364475700
C 5.2190864009 0.9132230188 0.9815783058
C 5.7680037962 2.2753223245 1.4218402630
C 5.2729482122 -0.0437011965 2.1879178836
C 6.1181740068 0.3699279760 -0.1452930976
O -2.4473849962 0.3032282659 -1.3660898290
C -3.5354971853 0.6457325495 -0.5735510959
O -3.4183461834 0.8732988630 0.6008240676
C -4.8055444960 0.7131555458 -1.4022129098
C -4.6268002206 1.7972012330 -2.4818645785
C -5.0506144352 -0.6547524663 -2.0621985919
C -5.9688361308 1.0728878027 -0.4760436014
H -2.9043221299 -3.2138765484 -1.4923233114
H -1.7989599585 -2.1292173361 -2.3400302984
H -1.2672294218 -3.7511622861 -1.8656694852
H -0.8074273179 -4.8309142592 2.1079034797
H -2.1201127050 -4.9435677824 0.9169566711
H -0.4421937391 -5.0909703594 0.3911619422
H -0.9296501543 0.9469327363 1.9170431439
H -0.6352990140 -0.1775785438 3.2710762030
H 0.7188961601 0.3217853400 2.2154689435
H 1.3366550227 -1.0407025169 -0.7463095407
H 3.6369317084 -1.1071587096 0.0491031514
H 3.5302242642 3.1317817622 0.7298417815
H 1.2270149685 3.1960670878 -0.0709382009
H 5.7834736500 2.9920362410 0.5945053511
H 6.7963658240 2.1553650715 1.7760228469
H 5.1813493276 2.7010160186 2.2422805747
H 4.6344744902 0.3202009835 2.9992003304
H 4.9395886247 -1.0505659979 1.9219788783
H 6.2993208887 -0.1169562976 2.5634945890
H 7.1548876047 0.3022707988 0.2018753486
H 6.0886658017 1.0315873774 -1.0167551767
H 5.8067065177 -0.6275421646 -0.4679527090
H -5.5539239410 1.8823114946 -3.0576527287
H -4.4101041983 2.7701357018 -2.0309071337
H -3.8109453975 1.5505587378 -3.1645619716
H -5.1292084564 -1.4465454356 -1.3098869349
H -5.9922951262 -0.6197165409 -2.6189780699
H -4.2476286145 -0.9109178554 -2.7573006207
H -6.8912825545 1.1345248744 -1.0612656964
H -5.7991649488 2.0362805716 0.0109587524
H -6.0997706694 0.3201340303 0.3058996472
