47
CONF233
C -2.7731650162 -4.0245205484 -1.0088910175
C -3.1444542821 -2.6493792866 -0.4378662840
C -4.3363033309 -2.0924541071 -1.2201796075
C -1.8914303899 -1.7519215383 -0.4341995286
C -0.7798017896 -2.3171760397 0.5008391201
C -0.2144223091 -1.1262544061 1.2941850585
C -0.6460893648 0.1064214131 0.4996068858
C -0.5534421436 1.4190886384 1.2878793056
C 0.8655134540 1.7219263552 1.6958911863
C 1.7972126323 2.1636447584 0.7509771614
C 3.1204783899 2.4125389337 1.1006801676
C 3.5098445443 2.2128277586 2.4199530803
Cl 5.1849862453 2.5274484691 2.8781793221
C 2.6134080711 1.7772705630 3.3861331636
C 1.2935576730 1.5352382529 3.0118987749
C -2.0605744626 -0.2750804589 -0.0009933800
O -3.0179264138 -0.2498128677 1.0692765407
C -2.5893618522 0.6922202245 -1.0874651707
N -1.7239977199 0.8541496757 -2.2495131226
C -0.8203363513 1.8241434132 -2.4942711154
N -0.2203215121 1.6163387837 -3.6609864151
C -0.8168924650 0.4734754913 -4.1013051642
N -1.7362590024 -0.0246080903 -3.2837920655
H -1.9506563076 -4.4922564735 -0.4605502731
H -3.6326819213 -4.7019502299 -0.9703413711
H -5.1325306833 -2.8436574533 -1.2651618904
H -4.7539252780 -1.1981705914 -0.7517346221
H -4.0516552955 -1.8493578122 -2.2508060219
H -1.5044352385 -1.7233452565 -1.4599484201
H -1.1898529166 -3.0748180494 1.1760715612
H 0.0020565037 -2.8049840477 -0.0887785347
H 0.8703341655 -1.1746923202 1.4233585465
H -0.6623983342 -1.0806641123 2.2939296285
H -0.0057597802 0.1865789076 -0.3910046454
H -0.9391609981 2.2541877474 0.6902003450
H 1.4877443402 2.3194572430 -0.2790082704
H 3.8335064420 2.7590134878 0.3609754755
H 2.9341045822 1.6304485511 4.4114811830
H 0.5867535553 1.1938520306 3.7628490990
H -2.7087239587 1.6869104102 -0.6439129827
H -3.5660764821 0.3644479023 -1.4424152244
H -0.6458470452 2.6478843887 -1.8139544305
H -0.5776212258 -0.0014409680 -5.0445905569
H -2.4679789000 -3.9268906251 -2.0583843565
H -3.4553433533 -2.7838304641 0.6070279199
H -1.1712661834 1.3463250781 2.1906210929
H -3.0733742007 0.6512439266 1.4149842988
