39
CONF262
C 2.8228443401 -0.8854991554 -0.1950769245
C 2.0957483305 -0.7751304969 -1.5223036306
O 1.4147883078 -2.0116196908 -1.7465549740
C 0.4256417807 -1.9440609246 -2.7778958164
C -0.9695921452 -1.9652035277 -2.1970697656
O -1.1252379102 -0.7796711413 -1.4015159138
C -2.2204685710 -0.6991811487 -0.5942215818
C -3.3416057202 -1.5162898981 -0.6912294731
C -4.4127806718 -1.3479005577 0.1925736165
C -4.3608918425 -0.3650951000 1.1695028472
C -3.2382167058 0.4627875699 1.2756617387
C -2.1671787922 0.3036107463 0.4019706350
O -1.0271109947 1.0501704494 0.4169778839
C -0.8142666871 1.9162235059 1.5428170196
C 0.5614590841 2.5125057657 1.4058951812
O 1.5286074653 1.4703783749 1.4873473380
C 2.8640007354 1.9693554988 1.4167550181
C 3.8192025244 0.8152556873 1.2081558753
O 3.6930822059 0.2468686216 -0.0987253143
H 2.0976435603 -0.8978333101 0.6262047362
H 3.4107090191 -1.8159462416 -0.1617922126
H 1.3869784211 0.0631215959 -1.4832689437
H 2.8199871590 -0.5846829345 -2.3303412621
H 0.5700407393 -1.0491686553 -3.3968433111
H 0.5376510465 -2.8256667434 -3.4214112182
H -1.7080652708 -1.9888270834 -3.0111129848
H -1.1057641073 -2.8523045895 -1.5641644129
H -3.3895620541 -2.2860163469 -1.4525815017
H -5.2806548050 -1.9934221114 0.1052394746
H -5.1875742796 -0.2298065966 1.8593263812
H -3.2070637680 1.2253141364 2.0447500245
H -0.8958956620 1.3391323028 2.4736977511
H -1.5577131150 2.7245190590 1.5547320797
H 0.6534150710 3.0432996396 0.4451235970
H 0.7032463114 3.2439689543 2.2177525405
H 2.9602322767 2.6767711389 0.5779630226
H 3.1248626394 2.5010039219 2.3475235035
H 4.8425931446 1.1994235220 1.2929016174
H 3.6769086330 0.0496159698 1.9832375500
