58
CONF2
C -1.3409375933 -1.8554245677 -3.0751350296
C -0.5806950129 -1.9465983688 -1.7624030612
O 0.0699841345 -0.6758989100 -1.5738198243
C 1.0653024150 -0.6974920339 -0.5724712586
O 2.2048325091 -1.4289341797 -0.9816105158
C 2.8652929559 -0.7906151341 -2.0936594484
C 3.2756247174 0.6185372358 -1.7234873962
N 2.0931869555 1.4070180185 -1.3380828690
C 2.4510900647 2.8169177159 -1.0921077416
C 3.3517230953 3.0610982986 0.0801393797
N 4.6559085931 3.1314504425 0.0178036194
N 5.0541206649 3.3182148524 1.3208230851
C 4.0115934934 3.3759665131 2.2117615476
O 4.0330053033 3.5401034843 3.4301948891
N 2.9131993801 3.2001345861 1.3756243261
C 1.4227824062 0.7578735707 -0.2018929562
C 0.1796998505 1.4769755072 0.2646294555
C -0.6986032775 2.0932803560 -0.6316579770
C -1.8652586739 2.7010388909 -0.1821090783
C -2.1419301814 2.6696907515 1.1753576283
F -3.2836811964 3.2572717236 1.6198660768
C -1.3055242996 2.0658439240 2.0954938867
C -0.1373120732 1.4702871390 1.6245615226
C -1.5054440028 -2.2488798747 -0.6005530734
C -1.5024970835 -3.5053683258 -0.0034734033
C -2.3911400351 -3.7897889030 1.0327949338
C -3.2858729021 -2.8297978389 1.4878509571
C -3.2806594608 -1.5728492424 0.8855589100
C -2.3948429987 -1.2743242547 -0.1428586142
C -4.2484079872 -0.5393150371 1.3865368529
F -5.4789356460 -1.0685222616 1.6037353209
F -3.8485013542 -0.0038681937 2.5715322738
F -4.4049141947 0.4868682871 0.5228938159
C -2.3481988286 -5.1306796856 1.7066870250
F -3.5664154436 -5.5207009534 2.1503162137
F -1.5268201391 -5.1195423188 2.7925286912
F -1.8912106975 -6.1037579985 0.8861030288
H -2.0781468590 -1.0475286032 -3.0296007919
H -1.8638878003 -2.7954950977 -3.2704592710
H -0.6452656890 -1.6588086274 -3.8955703413
H 0.1787773057 -2.7367511229 -1.8272156102
H 0.7007862910 -1.2098466896 0.3290276879
H 3.7459171396 -1.3994755857 -2.3113256829
H 2.2023751778 -0.7884696045 -2.9682395154
H 3.7511680022 1.0953666942 -2.5885790956
H 4.0195985599 0.5761891238 -0.9072149757
H 1.5358625121 3.4013002409 -0.9567616121
H 2.9605534273 3.1892890946 -1.9860528947
H 6.0306461217 3.4226170212 1.5499587623
H 1.9534818250 3.2141060787 1.6891847341
H 2.1087467115 0.6621361634 0.6619125098
H -0.4671300330 2.0961823929 -1.6911144107
H -2.5541022150 3.1837097186 -0.8671033844
H -1.5605880823 2.0630260036 3.1493559305
H 0.5358489310 0.9915154979 2.3312827559
H -0.8079919422 -4.2636550295 -0.3508724988
H -3.9782593177 -3.0540510995 2.2917074483
H -2.3879338352 -0.2875688586 -0.5940550301
