43
CONF10
C 1.2807462655 4.7320209377 -1.4679890544
C 0.3892491553 3.9604648776 -0.5614622432
N -0.4890623051 4.5914012717 0.2098052822
N -1.1294725366 3.6206018162 0.9206538427
C -0.6710716515 2.3917344376 0.6152070489
C 0.3385076777 2.5486880758 -0.3486946632
C 1.1547582282 1.5585720091 -1.0231732675
O 1.7856362856 1.8339449860 -2.0453516597
C 1.3030329621 0.1964848188 -0.4125461282
C 1.2982223364 -0.9848741054 -1.1633673016
C 1.5846612117 -2.2184010159 -0.5930576604
C 1.9031613841 -2.2601926730 0.7579380874
C 1.9182521704 -1.1167895727 1.5460325851
C 1.6080283390 0.0965169027 0.9493444629
Cl 2.2900245323 -3.8085321106 1.4800611508
Cl 0.8672537041 -0.9823517001 -2.8626243785
O -1.1546996697 1.2905640426 1.2180095382
C -2.4848997523 0.8643009889 0.7735110700
C -2.2972958365 -0.0875389947 -0.4069595097
O -2.3950288311 0.3619644946 -1.5427309243
C -1.9807202460 -1.5064467002 -0.1402230031
C -2.0024600161 -2.4141763124 -1.2097539525
C -1.7132063491 -3.7528359101 -0.9959685664
C -1.3897678582 -4.2002453514 0.2863145720
C -1.3600229172 -3.3055361933 1.3531048088
C -1.6583874988 -1.9644870930 1.1452602331
C -2.1673854516 3.9739467453 1.8748456802
H 1.1498350824 5.8017141827 -1.2893422985
H 2.3283516150 4.4623097686 -1.3053510922
H 1.0550768083 4.5126742272 -2.5157214279
H 1.5519301823 -3.1233502437 -1.1867899848
H 2.1678319495 -1.1702474859 2.5989846778
H 1.6276032564 1.0006306292 1.5491482154
H -3.0709651324 1.7230690980 0.4383489148
H -2.2547784433 -2.0530622148 -2.2006049965
H -1.7386111709 -4.4525607624 -1.8251857213
H -1.1603653627 -5.2482079126 0.4525221410
H -1.0989993834 -3.6521110480 2.3475446052
H -1.6191365706 -1.2792380381 1.9846445700
H -1.8317487379 4.8366145663 2.4536851740
H -3.0987245836 4.2210809914 1.3558245755
H -2.3317945647 3.1287195096 2.5451581395
H -2.9590910993 0.4000802619 1.6385209295
