82
CONF211
C -6.2754177550 0.5231860341 -1.8726036932
C -5.2099684764 -0.4191587531 -1.3796077040
C -5.5264670078 -1.6951563227 -1.1228394683
C -3.7759783253 0.1061271809 -1.3261544590
C -3.6227660557 1.6413261732 -1.0711100587
C -2.9093635804 1.8056450525 0.2910842815
C -2.9691708852 0.4169023699 0.9492839588
C -2.8873431330 -0.5573020417 -0.2450353582
C -1.4549564315 -0.8899038912 -0.7399985426
C -0.7652781076 0.1932412878 -1.5699403657
C 0.5158505797 -0.3391459460 -2.2003652042
C 1.5725694728 -0.8008963864 -1.1812011534
C 2.6248785091 0.3382197741 -0.8189685268
C 2.0037016021 1.7201568438 -0.5385632647
C 3.0299114434 2.7861456505 -0.1442105324
C 3.8340889302 2.3842111770 1.0880047845
C 4.5188971560 1.0032061312 0.9186101925
C 3.5236078914 -0.0971768094 0.3879290977
C 2.6703077629 -0.7059471468 1.5053637943
C 1.9181731181 -1.9474743879 1.0447139890
C 0.9128153191 -1.7518835300 -0.1041640819
C -0.5469883663 -1.3601226956 0.4300640923
C -0.5225185709 -0.2410330390 1.4941534585
C -1.9037126571 0.1646447379 2.0202786727
C -1.1991709558 -2.5995960288 1.0858664600
C 0.7995906921 -3.1339452350 -0.8049649019
C 5.7256821608 1.1763246552 -0.0293803692
C 5.1306125083 0.5948555862 2.2707839338
O 3.0252630780 2.4799721523 2.2720735995
C 3.4815318981 0.4454040264 -2.1099608874
C -4.3589130755 0.3214456985 1.6224001671
O -4.7265724399 -0.9911999155 2.0320269314
H -5.9432805457 1.0485808880 -2.7759383606
H -6.5135124765 1.2932091594 -1.1300177327
H -7.1969902376 -0.0153673739 -2.1022854149
H -4.7888256845 -2.4374410846 -0.8342892817
H -6.5436984002 -2.0505312402 -1.2559351926
H -3.3752751903 -0.1281004778 -2.3225285083
H -3.0404313533 2.1043092598 -1.8726643375
H -4.5884305901 2.1485582945 -1.0655481570
H -1.8732763951 2.1310664381 0.1625480122
H -3.3954303935 2.5604331082 0.9222960850
H -3.3160398941 -1.5117721501 0.0598249049
H -1.5868113639 -1.7475966428 -1.4186524327
H -1.4275699215 0.5306138473 -2.3746611750
H -0.5482985340 1.0755685494 -0.9642004602
H 0.9280304557 0.4175348110 -2.8749357092
H 0.2483969807 -1.1886998384 -2.8429913043
H 2.2264052787 -1.4979149254 -1.7202058422
H 1.2539509178 1.6461788871 0.2573103637
H 1.4574004367 2.0656664756 -1.4232157998
H 3.7133258606 2.9897148846 -0.9744772929
H 2.5193213917 3.7314905972 0.0719237780
H 4.6281065641 3.1236447728 1.2587499761
H 4.1581316945 -0.9205829053 0.0207985073
H 3.3163589087 -1.0121270090 2.3310568791
H 1.9853956364 0.0338444778 1.9251979677
H 1.4270383631 -2.4228582741 1.9016765893
H 2.6753196697 -2.6691653586 0.7050236273
H 0.0719534608 -0.5722891506 2.3516070065
H -0.0219294354 0.6416620143 1.0883454886
H -2.2773218840 -0.6088978219 2.6995180098
H -1.7989233243 1.0718734545 2.6309493634
H -2.1006428098 -2.3303404738 1.6375727272
H -0.5224751737 -3.0815898704 1.7975687524
H -1.4919910621 -3.3429725484 0.3398438811
H 0.0236149672 -3.1588328076 -1.5748666594
H 0.5844861869 -3.9278588358 -0.0865200265
H 1.7507621926 -3.3864007776 -1.2826593353
H 5.4807225664 1.6165810907 -0.9940431991
H 6.1992015491 0.2072387522 -0.2189937915
H 6.4738016018 1.8221130235 0.4425857601
H 5.6076932410 -0.3896542262 2.1983084833
H 4.3979633490 0.5798807348 3.0770218337
H 5.9016431048 1.3200977577 2.5520373169
H 2.1986699828 2.0115908168 2.1133898807
H 3.9949429823 1.4007036218 -2.2082330168
H 2.8622476589 0.3364115417 -3.0032718627
H 4.2376282682 -0.3453881593 -2.1368223502
H -4.3371232931 0.9377547542 2.5310579112
H -5.1303513031 0.7454433703 0.9622526518
H -5.1367820975 -1.4164555166 1.2659234323
