33
CONF93
C -3.6485221153 -0.0522172254 1.7041172679
C -3.0001314825 -1.2589212242 1.0340825774
C -1.6080019047 -1.5896968140 1.5569362408
S -0.3565694921 -0.2290482199 1.3365803927
P -0.1747655478 -0.3551669693 -0.7524409047
O -0.3345489068 -1.7148669684 -1.3081262915
O -1.1445482089 0.7038824922 -1.4488141350
C -1.1164296330 2.1180423906 -1.0916108996
C -2.4226653598 2.7246745063 -1.5453927852
O 1.2632722294 0.3901370337 -1.0068447120
C 2.4397438712 -0.1427940771 -0.5206261320
C 2.8859938246 -1.3958806026 -0.9251360146
C 4.0998108764 -1.8886184000 -0.4631023851
C 4.8601335394 -1.1083368175 0.3987859279
C 4.4366333131 0.1467454053 0.8149683420
C 3.2154808327 0.6222595110 0.3515701720
Cl 2.6491469364 2.1860741415 0.8713078971
Br 6.5366790679 -1.7687291873 1.0306316502
H -4.6564857285 0.1145817459 1.3139628685
H -3.7260676142 -0.1959495230 2.7874371318
H -3.0626743981 0.8556374537 1.5299178947
H -3.6183163424 -2.1516361956 1.1997539417
H -2.9555558332 -1.1169238393 -0.0517871797
H -1.1984529514 -2.4793133334 1.0733029680
H -1.6201752668 -1.7489795680 2.6410177401
H -0.9867435412 2.2102941620 -0.0062031589
H -0.2546335242 2.5739798246 -1.5895104980
H -2.5543042985 2.5987870914 -2.6230768209
H -3.2656183059 2.2539465136 -1.0322732432
H -2.4282044695 3.7945457964 -1.3161694315
H 2.2643682311 -1.9785724718 -1.5957436064
H 4.4484823022 -2.8650904764 -0.7752439676
H 5.0336679001 0.7471540408 1.4891565546
