56
CONF245
C 0.8789202318 5.1480727957 2.6780123103
C 1.5235747456 3.7991204009 2.4552979863
O 0.4621716267 2.8412274818 2.2822777178
C 0.8087648486 1.5433598405 2.0378084107
C 2.1170886904 1.0654065330 1.9686915628
C 2.3436806578 -0.2897433954 1.7108303244
C 1.3007669501 -1.1929207354 1.5113009527
C -0.0047754340 -0.6813979901 1.5817923760
C -0.2541240104 0.6545506224 1.8466125554
C 1.5290935119 -2.6719522664 1.1949174615
C 0.6563152888 -3.5560428111 2.1060468029
C 2.9914492721 -3.0961143672 1.3790911707
C 1.1010568241 -2.9473583816 -0.2541899980
O 1.9540131588 -2.2271735828 -1.1459441198
C 1.5587747268 -2.3530667837 -2.5045356230
C 0.3373666910 -1.5334595303 -2.8609277709
C 0.0506936785 -0.3576496641 -2.1661164723
C -1.0400765602 0.4097303200 -2.5491517225
C -1.8569730827 0.0448433941 -3.6127898915
C -1.5687372263 -1.1315465091 -4.2991979302
C -0.4839130943 -1.9195605856 -3.9216797134
O -1.2775742955 1.6101204237 -1.8838958851
C -2.2082671846 1.6166849880 -0.8676246183
C -2.4030620936 2.8445171897 -0.2338623201
C -3.3005666938 2.9325958235 0.8226521380
C -4.0087429999 1.8079471263 1.2479987375
C -3.8095724176 0.5920266729 0.6001044588
C -2.9113905454 0.4842079120 -0.4604024352
H 1.6554402947 5.9067294942 2.8112352540
H 0.2502052513 5.1346533808 3.5729068140
H 0.2632332971 5.4290699547 1.8185888422
H 2.1418670948 3.5084174457 3.3155664333
H 2.1574893874 3.8067367873 1.5581796109
H 2.9660160686 1.7229037777 2.1121392937
H 3.3732187816 -0.6258268910 1.6658051605
H -0.8564770605 -1.3347665698 1.4179384014
H -1.2709795354 1.0308626300 1.8945632247
H 0.8875610283 -3.3523379424 3.1560650810
H -0.4119605502 -3.3811899000 1.9516198977
H 0.8571298841 -4.6142059004 1.9078557097
H 3.0892589227 -4.1636582976 1.1561091340
H 3.3133368528 -2.9332041936 2.4128387482
H 3.6646163197 -2.5521217708 0.7131193611
H 0.0527848496 -2.6424749516 -0.3983634916
H 1.1784314326 -4.0271685916 -0.4658056423
H 1.3860872341 -3.4087953648 -2.7659436025
H 2.4126921321 -2.0007363596 -3.0965524892
H 0.6657406932 -0.0462756720 -1.3273327268
H -2.7013764215 0.6694958371 -3.8854941896
H -2.1980515886 -1.4369060147 -5.1292785343
H -0.2710335776 -2.8400652636 -4.4583949382
H -1.8383649951 3.7088876579 -0.5678307387
H -3.4440494303 3.8872576841 1.3194598094
H -4.7065204057 1.8803892402 2.0754675627
H -4.3519605674 -0.2917096256 0.9223904984
H -2.7502902547 -0.4703845919 -0.9480692278
