29
CONF136
C 2.7651562938 1.3722700741 -0.6943041899
C 2.7292696093 -0.0907700362 -0.3533157222
C 1.7048659816 -0.7069805936 0.2538152642
C 0.4073617313 -0.0979340846 0.7004534980
C -0.7261430818 -0.4303997164 -0.2840718743
C -2.1287595044 0.1124870589 0.0710532735
C -2.1389966108 1.6399178215 0.1319002184
C -2.6062033799 -0.4500621134 1.3882856278
C -3.6863945736 -1.2071593096 1.5645304046
O -3.0247874206 -0.2324260951 -1.0021322042
C 3.9625043900 -0.8510359065 -0.7587702085
H 3.6081826812 1.8613896350 -0.1898105298
H 1.8490858911 1.9016894526 -0.4270881151
H 2.9322818948 1.5006764472 -1.7711233502
H 1.7940551075 -1.7813703682 0.4223122444
H 0.4992676123 0.9867385464 0.8039304067
H 0.1575626454 -0.4925928427 1.6928084596
H -0.8028057721 -1.5219387732 -0.3873621515
H -0.4665748996 -0.0277070034 -1.2713907461
H -1.5551126218 2.0002973841 0.9821013593
H -3.1668620351 1.9965343213 0.2458135700
H -1.7160098577 2.0554963909 -0.7884375685
H -1.9948061915 -0.1848238068 2.2496957490
H -4.3339512889 -1.4829101524 0.7370079771
H -3.9567476015 -1.5692505281 2.5518256423
H -2.9798270862 -1.1903487406 -1.1266920182
H 4.8538998897 -0.4245910149 -0.2809385517
H 4.1248209939 -0.7770061263 -1.8417220893
H 3.8956657009 -1.9081899096 -0.4882720778
