48
CONF1
C -0.6232467393 -1.5750646810 2.7653746297
C 0.5275452514 -1.9845414531 1.8494648385
C 1.7735287385 -1.0609383154 1.8936628558
C 2.4079503442 -1.0839245719 3.2883084362
C 2.7783828784 -1.5779546049 0.8324850249
C 4.0385190851 -0.7337887218 0.6578612222
C 1.3373274373 0.3280041913 1.5054361168
C 0.6873390586 0.6875156287 0.2944725506
C 0.4770630088 2.0275689704 0.4214765796
O 0.9653074310 2.4728144579 1.5994712688
N 1.5264173829 1.3649262450 2.2927367774
N -0.1042384167 3.0014451202 -0.3611121611
C -1.0912881573 2.8331744792 -1.3097559056
O -1.5063769250 3.7939658738 -1.9448855102
C -1.6112731218 1.4466564338 -1.4992249696
C -1.2355834423 0.7078661107 -2.6271884482
C -1.7092770977 -0.5956804935 -2.8014755891
C -2.5577516307 -1.1321957762 -1.8377564693
C -2.9514122482 -0.4152807681 -0.7115349151
C -2.4689830139 0.8848044089 -0.5454441434
O -2.7571633640 1.6887100590 0.5115380521
C -3.6537238439 1.1808884614 1.5131467205
O -0.3730250679 1.3360375246 -3.4683009626
C 0.0935172440 0.6038842717 -4.6133042495
H -1.4784134954 -2.2424083006 2.6198522105
H -0.3430309290 -1.6203169636 3.8216935762
H -0.9578135346 -0.5545650650 2.5475332869
H 0.8649851489 -2.9975716647 2.1028446597
H 0.1659948484 -2.0243709542 0.8139985215
H 1.7090983547 -0.7401372481 4.0543494144
H 2.7064980886 -2.1099639100 3.5274882953
H 3.2935694236 -0.4464074868 3.3404045014
H 3.0510115087 -2.6020790425 1.1173614113
H 2.2551837632 -1.6497744032 -0.1291314671
H 4.6639013617 -1.1498899281 -0.1378281178
H 3.7900299883 0.2969812253 0.3820498353
H 4.6409904094 -0.7033960271 1.5702918549
H 0.4339623568 0.0468747123 -0.5324947703
H 0.1590612986 3.9617993966 -0.1658435208
H -1.4238085349 -1.1876654037 -3.6610209856
H -2.9259007015 -2.1449293043 -1.9694811109
H -3.6144587020 -0.8672223012 0.0144649029
H -3.2461920804 0.2788091401 1.9817110941
H -3.7411387842 1.9744111463 2.2550583130
H -4.6365802045 0.9662227148 1.0796062964
H -0.7402280628 0.3378807105 -5.2720759945
H 0.6301986377 -0.2997863243 -4.3044722491
H 0.7735252451 1.2786125315 -5.1330868185
