36
CONF24
C 2.4205496843 -1.1520868150 5.1823009146
C 3.2639756694 -1.1820184691 3.9585270736
C 3.1564871393 -0.3337147303 2.9318424791
C 4.0400540736 -0.4575430745 1.7627195904
O 4.9068395828 -1.2867661684 1.5910084382
O 3.7546473785 0.5176728567 0.8513439230
C 4.5340265732 0.4631024947 -0.3583189598
C 4.0030963510 1.5261085315 -1.3036717464
C 2.7700229659 1.1504787403 -2.1062466975
C 1.4630332939 0.9008334484 -1.2905380041
C 0.1461162184 0.9314001779 -2.1429023826
C -1.0748651045 0.2632954060 -1.4163697256
C -2.4576960997 0.6757047619 -2.0270003624
C -3.6377990254 -0.2686605196 -1.6253592231
F -3.6622946442 -0.4473514195 -0.2965733826
F -3.5299636170 -1.4580148525 -2.2262126929
F -4.7909670501 0.2981759354 -2.0066157590
F -2.7716082591 1.9191864120 -1.6047250923
F -2.3765173589 0.6712272826 -3.3777012619
F -0.9513250157 -1.0809833351 -1.5008629873
F -1.0683346916 0.6238675485 -0.1120010706
F 0.3531430441 0.2782671969 -3.3072959189
F -0.1717195156 2.2202861848 -2.4079406810
F 1.3631698452 1.8606165369 -0.3383860747
F 1.5525637219 -0.3133638956 -0.6913535402
F 3.0235582737 0.0274534283 -2.8413265112
F 2.5055882754 2.1685298820 -2.9867561824
H 3.0459434382 -1.0319487363 6.0751514878
H 4.0278200745 -1.9561894262 3.8918016727
H 4.4804449054 -0.5403829463 -0.7925247759
H 5.5826355254 0.6670341603 -0.1173890841
H 3.8085528260 2.4577269794 -0.7657455204
H 4.7640597540 1.7327233099 -2.0645910447
H 2.4198131936 0.4642640528 2.9178953851
H 1.8912976557 -2.1047805585 5.3047132309
H 1.6863251689 -0.3435557929 5.1555250274
