49
CONF46
C -1.5137649837 -0.9564007880 -1.4671680916
C -2.6793198055 -0.8538353974 -0.5065903483
C -2.4339745503 -0.3830836915 0.9484303069
C -2.8271340889 -1.8360077866 0.6176879692
C -4.2094274069 -2.2495813218 1.0872520277
C -1.8242962586 -2.9569690722 0.7940403196
C -1.1049524224 0.0013878801 1.4173819714
O -0.0333296188 -0.5241147357 1.1947229536
O -1.2020093437 1.1281505134 2.2093719930
C 0.0475976989 1.7349433753 2.6282780112
C 0.8821807909 0.7982791313 3.3867555410
N 1.5416634906 0.1178184179 4.0472321942
C 0.7697675581 2.4070565671 1.4784005717
C 1.8584804028 1.8151012225 0.8459465450
C 2.4385519917 2.4583060404 -0.2437044358
C 1.9650488129 3.6878593357 -0.6901922209
C 0.8879687664 4.2779140065 -0.0358619461
C 0.2839166361 3.6426288680 1.0437065850
O 3.5437250887 1.9357889157 -0.8859345695
C 3.5956336397 0.5692709012 -1.1192161854
C 4.8442914173 -0.0363619404 -1.0255106831
C 4.9639398703 -1.3919470679 -1.3195380054
C 3.8466428742 -2.1350480033 -1.6945040885
C 2.6035342909 -1.5111047433 -1.7852476703
C 2.4693072886 -0.1545340238 -1.5051569735
C -3.9056904404 -0.2655012649 -1.1766296689
H -1.3167007516 0.0234609732 -1.9163679269
H -1.7742970599 -1.6486898259 -2.2760968807
H -0.5933576091 -1.3012801987 -0.9997899387
H -3.2305146513 0.2265810973 1.3619899132
H -4.6015677359 -3.0414541935 0.4385714287
H -4.1481243626 -2.6486907863 2.1052424485
H -4.9241020569 -1.4258556931 1.0935083426
H -2.1524911865 -3.8210251498 0.2047639981
H -1.7911044578 -3.2638254319 1.8451551461
H -0.8140964842 -2.6920864712 0.4903606737
H -0.2787694157 2.5005809350 3.3400082187
H 2.2417041195 0.8581733600 1.1806334865
H 2.4415636962 4.1670840654 -1.5387335288
H 0.5162483821 5.2391629720 -0.3751779599
H -0.5611367659 4.1008235919 1.5480285162
H 5.7030637979 0.5551134941 -0.7258880689
H 5.9364537503 -1.8685542058 -1.2465597284
H 3.9434632535 -3.1926907617 -1.9160006309
H 1.7279954541 -2.0795285459 -2.0840617672
H 1.5031718000 0.3331909445 -1.5799415347
H -3.6461904894 0.6859871372 -1.6528863457
H -4.2635415517 -0.9456282183 -1.9586132459
H -4.7260204059 -0.0808634109 -0.4824272182
