21
CONF47
C 0.6001307829 -1.2981843437 -0.1163563328
C -0.1443789713 0.0367202822 0.0677534931
C 0.7272401169 1.2272164892 -0.3338639358
O 0.9541389785 1.1929228271 -1.7548296124
C -1.4450570444 0.0118378750 -0.7527602142
O -1.2775613449 -0.4364921269 -2.1031384836
C -0.5156576297 0.2452615166 1.5505735166
O -1.0789554693 -0.9174879537 2.1616824303
O 1.5362218559 -1.5740488488 0.9399875965
H 1.1003793705 -1.3219593906 -1.0912979932
H -0.1206737255 -2.1211880207 -0.0901220995
H 0.2153832099 2.1602587124 -0.0550547493
H 1.6882021100 1.1970536617 0.2028894158
H 1.3810593195 2.0187688614 -2.0120024033
H -2.1453984456 -0.6879109963 -0.2836382943
H -1.8982271746 1.0162853922 -0.7291385456
H -0.5844873624 0.1273069267 -2.4795903804
H 0.3698406685 0.5804127900 2.1083340590
H -1.2744851963 1.0328602091 1.6240919871
H -0.3519185782 -1.5463572015 2.2684871946
H 2.2642048259 -0.9432763810 0.8779933462
