45
CONF20
C 4.2301648301 -1.8489183605 2.0495681837
C 3.9115752985 -1.5375669764 0.5887379775
C 2.4404920914 -1.1853694367 0.3760801169
C 2.1267290043 -0.8967718760 -1.0931233861
N 0.7397370014 -0.5041119313 -1.3324528924
C 0.2277119915 0.6905580507 -0.9064121570
C -1.1734163690 0.8702827499 -0.8314753555
C -1.7186799792 2.1065130190 -0.5025407515
C -0.9198637451 3.2021952144 -0.2120157179
C 0.4649366088 3.0252726359 -0.2387231937
C 1.0305495947 1.7952492299 -0.5737743662
C 1.3099886105 4.1980354684 0.0989904619
O 0.8737736977 5.2990795129 0.3744074612
O 2.6310908255 3.9213273497 0.0714317519
S -3.5113348409 2.2833978425 -0.4116306354
O -4.0292142090 1.2623259169 0.5100920819
O -3.7918811272 3.7051600338 -0.1708813513
N -4.1474317660 1.9240988696 -1.9231464835
O -2.0114005773 -0.1646487678 -1.1883162653
C -2.1334062469 -1.2481482039 -0.3178712233
C -2.7697811188 -2.3695615638 -0.8397479147
C -2.9381394109 -3.4859638334 -0.0277203322
C -2.4695334393 -3.4825885981 1.2854791911
C -1.8352267701 -2.3487660642 1.7862623809
C -1.6646329376 -1.2179963173 0.9903062903
H 3.6364319700 -2.6979032447 2.4056460727
H 5.2875802550 -2.0974945807 2.1828836270
H 4.0022843235 -0.9895604960 2.6896644687
H 4.1722583771 -2.4001155985 -0.0388473677
H 4.5351699088 -0.7022131309 0.2438004638
H 2.1796654465 -0.3099115873 0.9856783785
H 1.8039946274 -2.0117933793 0.7195621062
H 2.3122980701 -1.7916431175 -1.6963525665
H 2.7947874239 -0.1179786860 -1.4807016173
H 0.0841761652 -1.2695157463 -1.3815751741
H -1.3539477808 4.1595866358 0.0440920685
H 2.1075530533 1.6985216822 -0.5947490508
H 3.1087155372 4.7363550836 0.2995516896
H -3.9276768969 0.9647175727 -2.1870397318
H -3.8024688194 2.5755475384 -2.6262612909
H -3.1235982409 -2.3554880828 -1.8653219504
H -3.4361147026 -4.3635446838 -0.4276423795
H -2.6001063160 -4.3571178358 1.9138731478
H -1.4713001053 -2.3339632935 2.8087224534
H -1.1825090167 -0.3295687964 1.3843537868
