66
CONF8
C 4.6957747560 -0.2283690613 -2.3671964211
C 3.3403113123 -0.8985601718 -2.2665898565
O 2.6252424276 -0.4599981404 -1.0825561761
C 1.9150208466 0.6948292028 -1.1866832131
O 1.8857785491 1.3519283316 -2.2207590324
C 1.2345369894 1.0044123719 0.0678771659
C 0.6117202582 2.2067917703 0.2209021216
N 0.0362396975 2.5201714975 1.4300522446
C 0.1109716082 1.7419382730 2.5603415233
C 0.7042426109 0.5165326415 2.4876468098
C 1.2221318369 -0.0492106891 1.1705203389
C 0.4355652180 -1.2972458918 0.7592518434
C 1.1079270912 -2.5172748197 0.6446904939
C 0.4537086387 -3.6798602957 0.2597992445
C -0.9096092127 -3.6393026811 -0.0274299882
C -1.5935219296 -2.4361845932 0.0717248977
C -0.9376087554 -1.2591632836 0.4614705299
C -1.7567766279 -0.0396898588 0.6047754750
C -2.3043706369 0.6875810340 -0.3782853700
C -2.0379395891 0.4752038267 -1.8161043930
O -1.2527153509 -0.3295355576 -2.2836510264
O -2.7883091455 1.3370418722 -2.5374680110
C -2.7328072908 1.3570824544 -4.0224239520
C -1.3347854575 1.7472706204 -4.4883780474
C -3.1848882615 0.0110806489 -4.5775152019
C -3.7386621377 2.4467774674 -4.3735824651
C 0.8208652095 -0.3096997969 3.6885214299
O 0.2285298522 -0.1459596464 4.7481380902
O 1.7000411310 -1.3282398537 3.4970548528
C 1.8074102804 -2.3085942033 4.5634420763
C 0.6911990421 -3.3297990268 4.4675830459
C -0.4876766325 2.3751658773 3.7793588076
C 0.4779851169 3.2822990411 -0.8129136019
H 5.2362969382 -0.6287791350 -3.2308343589
H 5.2896039636 -0.4228547002 -1.4692427194
H 4.5889400579 0.8516238549 -2.4963004502
H 3.4411405995 -1.9786824421 -2.1321284582
H 2.7253094069 -0.7002420333 -3.1486846916
H -0.3974951064 3.4264465682 1.5169513748
H 2.2505399057 -0.3887374999 1.3270298680
H 2.1709964732 -2.5441428879 0.8644475812
H 1.0033219545 -4.6131969390 0.1841807022
H -1.4366905880 -4.5389579701 -0.3296983550
H -2.6545947194 -2.3914052422 -0.1551153063
H -1.9720462337 0.2690946329 1.6274185302
H -2.9499046673 1.5241776356 -0.1300838223
H -1.0278772730 2.6875503506 -4.0200543832
H -0.6011720624 0.9744674344 -4.2566326347
H -1.3578495342 1.8971100238 -5.5723002608
H -4.1538466004 -0.2670059397 -4.1514507133
H -2.4596841830 -0.7756214608 -4.3673288156
H -3.3011165210 0.1015023746 -5.6619162032
H -3.4394428755 3.4024802532 -3.9333639497
H -3.7857538796 2.5621507347 -5.4598870593
H -4.7349261330 2.1836477580 -4.0063987627
H 1.8049298679 -1.7945509667 5.5283850613
H 2.7841365754 -2.7712643214 4.4035545085
H 0.8254942134 -4.0909560567 5.2427357495
H -0.2837697842 -2.8571367294 4.6128799863
H 0.7042904386 -3.8216836543 3.4905015694
H -1.4072351286 1.8568298726 4.0656249627
H -0.7199190565 3.4262146960 3.5898508526
H 0.1910439310 2.3047360958 4.6301270615
H 1.4562699567 3.5841084821 -1.1921920742
H -0.0899750792 2.9166284854 -1.6719484055
H -0.0300376331 4.1558693924 -0.3965809925
