44
CONF240
C -3.5754312804 -3.4986473607 -1.2735570673
S -2.8975640964 -2.2101428941 -2.3367688469
O -3.8674430502 -1.1006462167 -2.4485093795
O -2.4211019459 -2.8551652307 -3.5780606389
C -1.4156046363 -1.6192644394 -1.4475723102
C -1.4986575086 -0.7524615367 -0.3487150034
C -0.2799620493 -0.3281902852 0.1971953549
C 0.9508231401 -0.7573249480 -0.2963194628
C 0.9814256335 -1.6546454454 -1.3624873084
C -0.2015448534 -2.0774510859 -1.9479971634
C 2.2675479281 -0.3206009276 0.2762178319
O 3.0452056486 -1.1448382342 0.7137779574
C 2.6074566241 1.1618777138 0.1268463897
C 3.6557467402 1.2616363614 -1.0132937588
O 3.3086292144 1.6595857635 -2.1035545408
C 5.0560083723 0.8703313676 -0.6446387711
C 5.5121452296 1.5861368858 0.6364716668
C 4.5480281170 1.3345443858 1.8090312007
C 3.1670153306 1.7719617523 1.4253900370
O 2.5153543353 2.6031130189 2.0216527082
Cl -0.2719931542 0.7205151421 1.5995535708
C -2.7897665189 -0.2560079701 0.2412560941
O -2.9376997728 1.1128631845 -0.1776004277
C -3.8247968145 1.8756695874 0.6112749497
C -5.2745674509 1.6844908788 0.1950751248
F -5.7145677290 0.4172460056 0.4037899869
F -5.4702777239 1.9563769246 -1.1136314996
F -6.0778910020 2.5097390988 0.9095110057
H -3.8614198584 -3.0674686399 -0.3122457752
H -4.4504571866 -3.8907066568 -1.7998930119
H -2.8122658032 -4.2703256833 -1.1515524656
H 1.9369414481 -2.0041909012 -1.7391998688
H -0.1836159645 -2.7534288012 -2.7940871467
H 1.7231410118 1.7204938788 -0.1814879366
H 5.0647040756 -0.2136590536 -0.4672203168
H 5.7132679395 1.0916665947 -1.4881146816
H 5.5904980054 2.6627386525 0.4488946523
H 6.5066907034 1.2253861432 0.9096068079
H 4.8557138659 1.8772258409 2.7051259188
H 4.5237766815 0.2589464658 2.0245515377
H -3.6404996225 -0.8493822296 -0.0925841266
H -2.7367975013 -0.3102555060 1.3366537951
H -3.7452565883 1.6415332633 1.6820281897
H -3.5809368432 2.9307256545 0.4536640359
