50
CONF25
C 4.0700710461 -3.6652725113 -0.4168934406
C 2.8004804540 -3.2365422337 0.2627793781
O 2.4687539534 -3.5212971301 1.3883701593
O 2.0547539114 -2.4651049166 -0.5724132971
C 0.8134693486 -1.9606462927 -0.0296571244
C -0.2878013909 -2.9924700863 -0.1115820969
C -1.5490158470 -2.6211998014 0.1285711578
C -1.7465712011 -1.1793810005 0.4800120559
C -3.1588037328 -0.5984870056 0.6329794686
C -3.0842130550 0.8717086307 1.1993048114
C -1.7833497237 1.6030257497 0.9302546157
C -0.8512416936 1.0120532594 0.0980442618
C -1.0220212986 -0.3053121176 -0.5695161151
C 0.4389861032 -0.7229717835 -0.8445663682
O 1.2858030872 0.4322993647 -0.5134914157
C 0.4854265525 1.3671540318 0.0761998190
C 0.8912303802 2.5175243095 0.7356739473
C -0.0596731757 3.2207853929 1.4747934473
C -1.3690062713 2.7577762430 1.6087257935
O 2.2258218868 2.9073752004 0.7932367360
C 2.8569930701 3.1570491131 -0.4086840547
O 2.2952247643 3.1516635953 -1.4696673098
C 4.3121891895 3.4260705434 -0.1655173305
C -1.8208846793 -0.2744203200 -1.8831182940
C -3.2754993798 0.1137053943 -1.6756629886
N -3.8733953887 -0.7301515327 -0.6423868770
C -5.3058398630 -0.4974675262 -0.5234543124
H 4.6456432279 -2.7844676549 -0.7147009526
H 4.6535565445 -4.2847411835 0.2624027318
H 3.8351633849 -4.2229058158 -1.3278460978
H 0.9842236990 -1.6645316142 1.0155405736
H -0.0050743513 -4.0115507339 -0.3543562062
H -2.3828369938 -3.3144555490 0.0732316673
H -1.2349024854 -1.0037038083 1.4398348401
H -3.7100552053 -1.2044578362 1.3630283814
H -3.2214939713 0.8339142576 2.2866312341
H -3.9403055180 1.4406855688 0.8165893111
H 0.6119421692 -0.9329968210 -1.9040185413
H 0.2642942068 4.1136404883 1.9994039573
H -2.0521767652 3.2805727230 2.2714193815
H 4.4366910618 4.1723510652 0.6229938513
H 4.7770378624 3.7637479842 -1.0904856485
H 4.7942450290 2.5049924245 0.1761531675
H -1.3388488169 0.4262281020 -2.5743960032
H -1.7766027245 -1.2759561525 -2.3285591782
H -3.3509036814 1.1916530136 -1.4284180784
H -3.8318629291 -0.0343388054 -2.6088706491
H -5.7247115150 -1.1482835083 0.2515613896
H -5.5745214169 0.5477796956 -0.2769933272
H -5.7919715466 -0.7452452378 -1.4733401581
