60
CONF630
C 8.0909863878 0.4059946470 -1.1401761995
C 7.2655366965 1.5096800200 -0.4843418597
N 5.9760683292 1.7176837694 -1.1504593114
C 5.9528021168 2.6649242760 -2.2695750460
C 5.6543040370 4.0994352568 -1.8351054241
C 4.9002429636 0.9965207985 -0.7211756793
O 4.9861592215 0.1288326999 0.1580685602
N 3.6906661815 1.2951340282 -1.3459433157
C 2.4670232244 0.6779193557 -1.0293416564
C 1.3069484878 1.4424207286 -1.0347166746
C 0.0438747236 0.8934612999 -0.7766976331
C -0.0442773157 -0.4910000491 -0.4983529414
C 1.1235905806 -1.2636764562 -0.5062765216
C 2.3595046186 -0.6944173925 -0.7749116852
O -1.2718276968 -1.0190601170 -0.2661480985
C -1.3891891027 -2.4454945580 -0.1173108038
C -2.8510997126 -2.7947650549 0.0457564257
C -3.5137903898 -2.0900469643 1.2304048057
N -4.9420359256 -2.4240890661 1.2162171733
C -5.8506149021 -1.5105832678 1.9563871127
C -7.2252606590 -2.1851247287 1.9640100728
C -5.9484459463 -0.1753076039 1.2107871015
C -5.3867554296 -1.2714919342 3.4017269778
O -3.5495239121 -2.4783764870 -1.1611585750
C -1.1087096200 1.8413079224 -0.8252703277
O -0.9709477530 2.9299359084 -1.3806665312
C -2.4192249825 1.4983775719 -0.1727800384
H 7.5667645884 -0.5520464006 -1.0786190879
H 9.0563289572 0.3067331420 -0.6337031143
H 8.2811201717 0.6321512388 -2.1942724507
H 7.8073277359 2.4613344952 -0.5190532714
H 7.0804780274 1.2725362957 0.5661785714
H 6.9379730996 2.6223504271 -2.7464116785
H 5.2384280706 2.3247062411 -3.0265420310
H 4.6658995170 4.1826413775 -1.3718124802
H 5.6836218570 4.7667441805 -2.7019113968
H 6.3985582601 4.4443825680 -1.1109398560
H 3.6003228454 2.2023889651 -1.7773237518
H 1.3615425197 2.5075711559 -1.2376575402
H 1.0793114240 -2.3283249401 -0.3165578422
H 3.2416525865 -1.3209243708 -0.7910425545
H -0.9839806840 -2.9438514470 -1.0070440343
H -0.8350554017 -2.7813675164 0.7691198525
H -2.8816093176 -3.8852544171 0.2210596378
H -2.9939033331 -2.3760060821 2.1590998429
H -3.3981994407 -1.0108104135 1.1004282932
H -5.0559823401 -3.3588781902 1.6002932597
H -7.9544194194 -1.5550776836 2.4818617284
H -7.1815311577 -3.1504168840 2.4820740247
H -7.5757306762 -2.3555593045 0.9407175773
H -4.9970824523 0.3655658981 1.2134313487
H -6.6916833252 0.4646468614 1.6963862429
H -6.2534618933 -0.3392863355 0.1719447277
H -6.1095513077 -0.6454846660 3.9356665587
H -4.4182363058 -0.7615614841 3.4275211251
H -5.2929247671 -2.2223580798 3.9387184650
H -4.4820723008 -2.4337333868 -0.8796501526
H -3.0273847800 2.4021346878 -0.1071617568
H -2.2669333511 1.0609595171 0.8173828126
H -2.9455912366 0.7459001385 -0.7697158785
