33
CONF24
C 4.6567158728 0.1543626145 -1.6845140251
C 6.1438962773 0.0668223181 -1.3189498439
O 6.9548741032 0.1202413468 -2.4881193472
C 3.7711727863 0.0988315662 -0.4603619895
C 2.2608232954 0.3042523451 -0.7894196727
C 1.2677842560 -0.0415568140 0.3722924538
C -0.1607021934 0.5800860700 0.1694178252
C -1.2652848824 -0.1185277320 1.0389972093
C -2.5687943945 0.7446842751 1.1857026513
C -3.8154630068 -0.0955588453 1.6258047805
C -4.9946712595 0.7657704490 2.1869639653
F -4.7019265231 1.2499908886 3.3978571614
F -5.2644832683 1.7845056949 1.3583613109
F -6.0829185085 -0.0091647382 2.2879352650
F -3.4517498978 -0.9690151442 2.5935798682
F -4.2797168272 -0.7805414551 0.5597709529
F -2.3505487681 1.7088335802 2.1082311913
F -2.8492160240 1.3267330609 -0.0022783763
F -0.7682034961 -0.3526721057 2.2737747005
F -1.5911768934 -1.2954223841 0.4586429010
F -0.1131304072 1.8897788234 0.5036594563
F -0.5085738895 0.4655911691 -1.1322036016
F 1.7688067171 0.4175780854 1.5391016006
F 1.1448042236 -1.3878503969 0.4430538162
F 2.0858126512 1.6026105990 -1.1484007644
F 1.9502000868 -0.4810179446 -1.8531613472
F 3.8971985078 -1.1143192702 0.1679439633
F 4.1414493509 1.0618067743 0.4362093813
H 4.4647166001 1.0897100989 -2.2196775588
H 4.3783900899 -0.6752740030 -2.3416836016
H 6.3404415229 -0.8407301002 -0.7321289936
H 6.4323919047 0.9287409777 -0.7126542900
H 6.8642034011 -0.7140165235 -2.9612319326
