57
CONF85
C -4.4204836511 -2.0593103257 2.3858177996
C -3.4733312871 -1.9952288752 1.1960085750
C -2.5313316691 -0.7979362238 1.2665815665
O -2.5367412632 -0.0497920702 2.2477644775
N -1.7015899075 -0.6052741799 0.1907999121
C -1.7553369099 -1.5286691496 -0.9089840082
C -2.5500295053 -1.2506786015 -2.0198566710
C -2.5992308282 -2.1528708288 -3.0788935861
C -1.8567885489 -3.3311814332 -3.0311889043
C -1.0616159970 -3.6060702271 -1.9204032469
C -1.0087400601 -2.7054575295 -0.8605364576
C -0.7547697172 0.5691061309 0.1300110149
C 0.2353133968 0.4946782294 1.3096828138
C 1.3924484297 1.4845830667 1.1982615990
N 2.1154870342 1.3262225211 -0.0661547436
C 1.1975097198 1.5249834417 -1.1911271313
C 0.0716495184 0.4969072399 -1.1666947720
C 3.2455633201 2.2496343734 -0.1665610812
C 4.3762894767 1.9476766822 0.8287042933
C 4.8586761531 0.5343460999 0.7785462048
C 4.8165980776 -0.4175907108 1.7624167864
C 5.3393185447 -1.6807143853 1.3634905170
C 5.7793286569 -1.6905781050 0.0702430319
S 5.5562685465 -0.1383174397 -0.6765648831
C -1.5635389528 1.8703095382 0.1791783669
O -2.4391758938 1.9273281977 -0.9439764238
C -3.2256532189 3.1135956670 -0.9277718416
H -5.0751863948 -2.9304468865 2.2921568507
H -5.0446076917 -1.1634138191 2.4421863743
H -3.8688377786 -2.1415806757 3.3257216947
H -2.8717689371 -2.9098945994 1.1346017679
H -4.0326027738 -1.9522303809 0.2543021551
H -3.1179381084 -0.3263370270 -2.0416920564
H -3.2195867235 -1.9349470072 -3.9427283690
H -1.8973584729 -4.0335960415 -3.8577068218
H -0.4794248997 -4.5213328855 -1.8790383703
H -0.3918025204 -2.9069877071 0.0101831851
H 0.6428750386 -0.5236102009 1.3287004531
H -0.2887957332 0.6608732558 2.2527440445
H 2.0780536646 1.2904660013 2.0297432802
H 1.0289031178 2.5251058505 1.3197322462
H 1.7611406400 1.3974089696 -2.1227745637
H 0.7892163915 2.5552889829 -1.2048104542
H -0.5690881191 0.6417578099 -2.0400954791
H 0.5230529171 -0.4972307669 -1.2460175132
H 3.6472635666 2.1713951377 -1.1849045887
H 2.9270077543 3.3018811554 -0.0255162429
H 5.1953234254 2.6442218903 0.6108149224
H 4.0593187101 2.1569578714 1.8553881374
H 4.4157852486 -0.2119340920 2.7491518665
H 5.3870019417 -2.5480453161 2.0119641324
H 6.2214502334 -2.5041499475 -0.4890381386
H -2.1376407211 1.9190915669 1.1121598828
H -0.8762552324 2.7284733194 0.1578254671
H -3.8740347393 3.0852265536 -1.8067819063
H -3.8460230696 3.1669679079 -0.0206699864
H -2.5915349866 4.0117979753 -0.9743957811
