45
CONF17
O -0.7680631302 -0.4656164621 -2.8306975130
C -1.9606107536 -1.2351718640 -2.7170804707
C -2.5945285163 -1.1520193526 -1.3449604477
O -1.6970182805 -1.7644413444 -0.3705398006
C -1.5642772245 -0.9382454973 0.7702977315
C -1.5808919896 -1.8101452067 2.0203605514
O -1.5045301881 -0.9932197929 3.1861130416
O -0.3701860510 -0.1432270443 0.7191790304
C 0.8444520099 -0.8245610998 0.4735772316
O 1.3610576370 -0.4768549827 -0.8041222058
C 1.6813354814 0.9316015950 -0.9635188455
C 2.2028252662 1.0842240172 -2.3823864224
O 3.4020468006 0.3418501433 -2.6117265816
C 2.7028623267 1.3629793165 0.0952049112
O 2.8974635629 2.7807800169 0.0484207967
C 2.1921628796 1.0249227974 1.4861728528
O 3.1803809646 1.2706596518 2.4899465712
C 1.8625071813 -0.4548191603 1.5525597353
O 1.3210239701 -0.8249885940 2.8217316771
C -2.7464913716 0.0457499907 0.6900003155
O -2.5810550235 1.2725984957 1.3707504624
C -2.8697604474 0.2523641809 -0.8138717264
O -4.1554340764 0.6720484364 -1.2543136609
H -0.1577063071 -0.7369861699 -2.1229319527
H -2.6709671152 -0.8415701462 -3.4525590247
H -1.7743374493 -2.2930583231 -2.9555472321
H -3.5362273281 -1.7202285408 -1.3539054701
H -0.7671082203 -2.5482677601 1.9878707027
H -2.5317276760 -2.3504815519 2.0513599254
H -0.5800780079 -0.6873736185 3.2286950796
H 0.6973281092 -1.9083494917 0.4382910962
H 0.7679263693 1.5341859279 -0.8519066971
H 2.4425531982 2.1372889276 -2.5573222247
H 1.4164704791 0.7920771233 -3.0904966801
H 3.1905716051 -0.5921817877 -2.4840553004
H 3.6504112566 0.8349606579 -0.0760281547
H 3.6394712258 2.9691515456 -0.5387089901
H 1.2849880985 1.6142373648 1.6920874435
H 3.3583173654 2.2204743464 2.4913767840
H 2.7784394330 -1.0326832876 1.3563909775
H 1.9245797305 -0.4891949910 3.4993506048
H -3.6442569144 -0.4877800771 1.0420406739
H -2.4247539966 1.0572845823 2.3019199387
H -2.0904233509 0.9516180802 -1.1470082942
H -4.2287405168 1.6204090601 -1.0900102386
