36
CONF2
C 2.8576123481 -1.6713883412 -2.4853148435
C 3.3730976877 -2.6882705515 -1.6880690461
C 3.3049438980 -2.5837426082 -0.3047203053
C 2.7134930990 -1.4610455478 0.2640146590
C 2.1826033998 -0.4202476239 -0.5050380098
C 2.2769802002 -0.5566255701 -1.8964450037
C 1.5141040565 0.7906219874 0.0850725492
C -0.0294772114 0.7498949325 -0.0157604105
C -0.5618588215 -0.5965036936 0.5181132584
N -2.0006379034 -0.6069619470 0.7323127811
C -3.0176470346 -0.9032804851 -0.1456952182
S -2.8058382000 -1.0955574235 -1.7995743430
N -4.1940923070 -0.9882692102 0.5797843129
C -3.8714262071 -0.7280033056 1.8204052121
N -2.5416605537 -0.5454371129 1.9966512417
C -0.6357044850 1.9316250216 0.7591967325
C -0.6480518971 3.3014140434 0.1682640998
C -1.9416222689 2.5410428335 0.3570611107
Cl -0.3260046896 1.8480304212 2.5522550805
O -0.3661881049 0.9277513900 -1.3781547474
Cl 2.6565159172 -1.3916941918 2.0297504748
H 2.9091247787 -1.7450468291 -3.5662728828
H 3.8323078603 -3.5630811349 -2.1361028349
H 3.7063621843 -3.3620268577 0.3336220229
H 1.8674322899 0.2357662915 -2.5126566121
H 1.8109212889 0.9242318171 1.1262336189
H 1.8228132789 1.6836428035 -0.4679568952
H -0.0773071800 -0.8500437599 1.4643909626
H -0.3323773928 -1.3786992665 -0.2147389304
H -4.5587424977 -0.6755275272 2.6564156352
H -2.0801685290 0.0379970366 2.6894242154
H -0.2633257921 3.3872498189 -0.8420742221
H -0.4508735022 4.1365886424 0.8298429300
H -2.4224574888 2.1326268458 -0.5258529187
H -2.6043338334 2.8707022526 1.1492194192
H -1.0985171761 0.3122665429 -1.6276023786
