94
CONF58
C 8.9899328523 -1.0965845066 -4.7526828122
C 7.8763223902 -1.6595083931 -3.8940722554
C 6.7506007939 -2.2956876604 -4.7283069613
C 5.6605418605 -2.8291814245 -3.8654553285
C 4.4629032303 -2.2352104110 -3.6974769805
C 3.5012553856 -2.6628571105 -2.7219081350
C 2.3381759777 -2.0134035267 -2.4546290748
C 1.4609928712 -2.3766177472 -1.3864284528
C 0.3405848409 -1.6872331050 -1.0476662839
C -0.4524063063 -1.9826497328 0.1117542969
C -1.4948562922 -1.2339674121 0.5178452927
C -2.1696593449 -1.4105166939 1.8398490040
C -1.7301176945 -0.3362912581 2.8388843310
C -2.0049028327 1.0920742049 2.3545859821
C -2.8945626166 1.9128680857 3.3215387296
C -2.9918076162 3.3587932013 2.8218997698
C -1.6019716754 3.9340375696 2.6120577168
C -0.7946618280 3.0555627734 1.6571139670
O -0.7264731570 1.7233425744 2.1849321642
C 0.6543511222 3.5294631279 1.5279566250
C 1.5566685717 2.6435310869 0.6654565993
C 2.9559496459 3.2489385436 0.5731378384
C 3.9341640562 2.4207137314 -0.2148666171
C 5.0305326162 1.6658848176 0.4398569256
O 5.2814010424 2.9222788071 -0.2197253520
C 5.6449539988 0.4755158264 -0.1658343843
C 6.2653411403 0.4769589437 -1.3515010153
C 6.8924274226 -0.7447191300 -1.8833057744
O 7.0409125415 -1.7880825226 -1.2717799071
O 7.3093811767 -0.5341492677 -3.1539222894
O 1.0057807248 2.4388931799 -0.6607556537
O -1.4616593093 3.0689170103 0.4057353561
O -3.6636349396 4.1949758181 3.7777350018
C -4.2389330294 1.2116660273 3.3764832188
O -4.5238028494 0.4016292627 4.2607545165
O -5.0193229774 1.4964552997 2.3599332233
O -3.6107389545 -1.2970039564 1.7437938936
C -4.3016206743 -2.4915006550 1.4459933304
C -5.7260155310 -2.3539139481 1.9919536212
C -6.5771224524 -1.3402694647 1.1586359945
C -5.8501900163 -0.9034487978 -0.1129550638
C -5.2231823855 -2.1170313493 -0.8024779400
O -4.2982748974 -2.8191466875 0.0713619997
C -4.4643728165 -1.7518478410 -2.0623649439
O -6.7434071889 -0.2144535279 -0.9940104212
N -6.9467048129 -0.1493873549 1.9530375212
O -5.7298682508 -2.0977136701 3.3846932208
H 8.6011198924 -0.3468627730 -5.4487349517
H 9.4468204787 -1.9044966166 -5.3312035799
H 9.7612606096 -0.6358098569 -4.1298719137
H 8.2629792817 -2.3830836106 -3.1707073646
H 7.2124228928 -3.0984094610 -5.3176777542
H 6.3654916964 -1.5412014475 -5.4244810016
H 5.9006073776 -3.7038612596 -3.2609085650
H 4.2215246054 -1.3473505085 -4.2837627356
H 3.7627987177 -3.5355852641 -2.1220902629
H 2.0726111608 -1.1374708865 -3.0478052899
H 1.7488971464 -3.2363021189 -0.7796700252
H 0.0481892628 -0.8232619229 -1.6454567596
H -0.1422786881 -2.8342747283 0.7197442501
H -1.8090259217 -0.3820988049 -0.0843401508
H -1.9173640382 -2.3968176164 2.2556606146
H -2.2376216995 -0.5281338115 3.7893539919
H -0.6545536631 -0.4429003058 3.0071966893
H -2.5195410282 1.0781653622 1.3858826062
H -2.4457014659 1.8967489470 4.3214701182
H -3.5350130811 3.3711743851 1.8702965512
H -1.0759143071 3.9825706242 3.5721489236
H -1.6748689767 4.9471902165 2.2048317046
H 0.6368255232 4.5465287845 1.1168017010
H 1.0902728935 3.5867654821 2.5314228465
H 1.6058978226 1.6377014194 1.0956199456
H 3.3503042244 3.4176595209 1.5811126863
H 2.8768905249 4.2340172191 0.0891801042
H 3.6016061925 2.0523888272 -1.1865321030
H 5.0698559410 1.7137506237 1.5292829661
H 5.5973695966 -0.4428588382 0.4162845030
H 6.3285359328 1.3791135704 -1.9514467083
H 1.1217720527 3.2615236928 -1.1589629745
H -0.8317337265 2.6886761334 -0.2343383584
H -4.6075427690 3.9949865844 3.7346563308
H -5.8406605250 0.7856119867 2.2618699345
H -3.8007881764 -3.3375671476 1.9368805905
H -6.1848580396 -3.3404572655 1.8702651215
H -7.4891346305 -1.8677932541 0.8387511111
H -5.0665441836 -0.1792260612 0.1330140787
H -6.0368044194 -2.8213755690 -1.0481261430
H -3.6823511664 -1.0208735960 -1.8325787928
H -3.9962698500 -2.6444268779 -2.4867907246
H -5.1420322869 -1.3259745115 -2.8063528160
H -7.4364515637 -0.8342957516 -1.2629595277
H -7.6315297097 0.3862636995 1.4244183907
H -7.4043416504 -0.4447217279 2.8119826695
H -5.2340322527 -1.2734692066 3.5618153991
