49
CONF115
C -0.3604105844 -1.6757704613 0.4873937507
C -1.7109276637 -1.5555895249 -0.1881026633
C -2.4386655562 -0.1978637083 -0.3181778096
C -2.9509003590 -1.3151219924 0.6216330635
C -4.2682212849 -1.9439719097 0.2071872311
C -2.8693363685 -1.1586792239 2.1261685502
C -1.9493228379 1.1248063335 0.0749416168
O -2.2125028904 2.1522042255 -0.5218737399
O -1.1505402755 1.1319592990 1.1883104310
C -0.6100413310 2.4211292353 1.5331363916
C -0.1516243011 2.2866859114 2.9180606113
N 0.2360681506 2.2138014305 4.0033583347
C 0.5423894286 2.8360298753 0.6336603987
C 1.3306558228 1.8558731457 0.0370379799
C 2.3894804457 2.2486552839 -0.7769188228
C 2.6715306591 3.6001730686 -0.9803375028
C 1.8753152521 4.5607963550 -0.3706834243
C 0.8035251935 4.1886106308 0.4385587867
O 3.1845684695 1.3568273149 -1.4580148852
C 3.1327712687 0.0067043974 -1.1244940227
C 3.5447152567 -0.4299800431 0.1310232126
C 3.5555108937 -1.7959314122 0.3973692997
C 3.1690877876 -2.7096729374 -0.5825058534
C 2.7644521109 -2.2538075153 -1.8344660224
C 2.7391803389 -0.8881804178 -2.1114166383
C -1.7679628421 -2.4219022786 -1.4337586949
H -0.2447310696 -1.0549398008 1.3727261454
H 0.4346887957 -1.4166290901 -0.2202455756
H -0.2064114897 -2.7214138862 0.7792093912
H -3.0206605664 -0.1028539701 -1.2298042513
H -4.3267932374 -2.9693485531 0.5906630604
H -5.1004557912 -1.3768110282 0.6375525419
H -4.4065031620 -1.9747553680 -0.8740264386
H -2.9600759359 -2.1478687068 2.5896222045
H -3.7052084332 -0.5466133221 2.4824770168
H -1.9460079620 -0.7025255797 2.4753724248
H -1.3979440564 3.1830919597 1.5007889249
H 1.1113819005 0.8069961003 0.1927421051
H 3.5017274051 3.8791583685 -1.6203571178
H 2.0883029016 5.6121506976 -0.5344142677
H 0.1759380868 4.9413302333 0.9051174419
H 3.8515874762 0.2910008066 0.8820589830
H 3.8760722484 -2.1463114203 1.3734210358
H 3.1830674207 -3.7734162430 -0.3688986156
H 2.4612222028 -2.9600730998 -2.6008779331
H 2.4250271896 -0.5125334174 -3.0796146037
H -0.9192691583 -2.1825408842 -2.0841356539
H -1.6909133473 -3.4795970013 -1.1561423687
H -2.6828352017 -2.2832808714 -2.0106545396
