53
CONF145
C -3.5028350043 -3.0012773589 -3.1420756109
O -3.2452431718 -2.0786901401 -2.0461937514
C -3.3219965987 -0.7825042699 -2.3506527399
O -3.5490182373 -0.3334987076 -3.4500941376
C -3.1505168269 0.0924528480 -1.0887849153
C -4.4509050484 -0.0216671575 -0.2521659027
C -4.1035510674 -1.0771412655 0.7703365297
C -2.7159818729 -1.2745794047 0.8473473399
C -2.0863765296 -0.4052680567 -0.1299068333
N -0.8984735645 0.0765735252 -0.0372735809
N -0.5687894925 1.0486708744 -0.9361760093
C -1.5229773070 1.4865581532 -1.9723482352
O -2.8474144481 1.4259832391 -1.4622551328
C 0.6572317925 1.6646043320 -0.8656546958
O 1.0814099048 2.3584334259 -1.7777338314
N 1.4188516270 1.3920525901 0.2981425730
C 2.8263172312 1.2038449788 0.1260296689
C 3.2713381441 0.1926085750 -0.7227610746
C 4.6339734904 0.0096900735 -0.9250751354
C 5.5211486276 0.8398657470 -0.2583004316
C 5.0975724325 1.8431582678 0.6004192490
C 3.7335426599 2.0345893711 0.7807285767
O 6.9080520137 0.6062694444 -0.4039693338
C 7.5272222623 1.2989501474 -1.3858992775
F 7.0117959802 1.0490595450 -2.6114026377
F 8.8156994682 0.9395383241 -1.3899383369
F 7.4616949437 2.6387249894 -1.2064357944
C 0.8337585815 1.5191595454 1.5646960410
O -0.1838793428 2.1407180558 1.7857192477
O 1.5649393245 0.8743575728 2.4831028002
C 1.1017759854 1.0317548824 3.8485697010
C -2.1620369181 -2.1472776059 1.7791629765
C -3.0134268452 -2.8450590425 2.6285795718
C -4.3907850432 -2.6470294894 2.5272988905
C -4.9622042349 -1.7664710532 1.6104031128
Cl -5.4505885908 -3.5465739607 3.6021455812
H -2.7631104977 -2.8529321374 -3.9313397666
H -3.4114736373 -3.9939156512 -2.7049295381
H -4.5092069314 -2.8381804283 -3.5331736916
H -4.6244530079 0.9446666280 0.2359855320
H -5.3300905028 -0.2651909440 -0.8540582032
H -1.3107869957 2.5261813805 -2.2200704162
H -1.4164466080 0.8534434599 -2.8633516419
H 2.5543060696 -0.4523022838 -1.2205787245
H 5.0037313451 -0.7736522098 -1.5768512833
H 5.8220689739 2.4695629635 1.1082029956
H 3.3763160413 2.8259331589 1.4310150242
H 0.1023187791 0.6040280738 3.9540445650
H 1.0883994704 2.0893765640 4.1211459526
H 1.8218117014 0.4854569483 4.4559250675
H -1.0885641624 -2.2939970904 1.8367000590
H -2.6176564902 -3.5433107422 3.3568255027
H -6.0364892803 -1.6257484837 1.5669238196
