37
CONF2
C -2.0621717853 -0.5820132524 -1.5592233615
Si -0.8497463175 0.0447217459 -0.2808755865
C -1.3413620604 -0.5547246353 1.4757608367
N -0.9107373835 -1.9313021056 1.6885252328
C 0.1599178585 -2.3771540557 2.3700931539
N 0.2956990303 -3.6928178534 2.2099413859
C -0.7424981727 -3.9991201380 1.3873780992
N -1.4993189621 -2.9627416440 1.0364974986
C 0.8766336716 -0.6267148218 -0.5748566453
C 1.9757975267 -0.0740743783 0.1014066868
C 3.2522430087 -0.6154342592 -0.0178481416
C 3.4117429255 -1.7291645937 -0.8260891085
F 4.6522484111 -2.2671312440 -0.9505753424
C 2.3642376224 -2.3162347012 -1.5142003729
C 1.0964518838 -1.7542840964 -1.3788236881
C -0.8208350783 1.9221642945 -0.2427803766
C -1.6632584439 2.6487635439 0.6125337120
C -1.6744998084 4.0416938196 0.6145358797
C -0.8250685090 4.6995541817 -0.2583532822
F -0.8247755660 6.0576116847 -0.2638652705
C 0.0258346529 4.0342103203 -1.1247868322
C 0.0184622188 2.6419915812 -1.1071334837
H -2.1171510410 -1.6747165628 -1.5636270420
H -1.7741965841 -0.2416128073 -2.5598812688
H -3.0615293997 -0.1902985864 -1.3403372090
H -0.8415242222 0.0620476199 2.2300037784
H -2.4211427468 -0.4893436110 1.6495150726
H 0.7914914097 -1.7250349706 2.9591494493
H -0.9564572188 -5.0023991899 1.0403322858
H 1.8410607982 0.7989147130 0.7355574938
H 4.1050167610 -0.1906193232 0.5009029412
H 2.5398492386 -3.1872777570 -2.1364475960
H 0.2700828764 -2.2123886445 -1.9146155488
H -2.3305849432 2.1314995715 1.2969552259
H -2.3224870412 4.6065957579 1.2761490741
H 0.6750978799 4.5938164819 -1.7897339573
H 0.6874787167 2.1130171113 -1.7811838991
