40
CONF25
C 3.3777537801 1.4488963734 -4.5202761347
C 2.0559026542 1.4677676063 -3.7939040647
O 2.3243785957 1.1150389290 -2.3941726638
P 1.1452738552 1.1225138486 -1.3199082556
S 0.0545644637 2.7239296781 -1.1991449956
O 1.9516546561 0.6243814924 -0.0453731246
C 1.8495407854 1.2594519989 1.2732588184
C 2.9299278626 2.3012879753 1.4345118964
O 0.3465784427 -0.2252181905 -1.8489183685
C -0.7527548506 -0.7418503694 -1.2213966268
N -1.0043935321 -0.3865692850 0.0245109511
C -2.0952389531 -0.9384036827 0.5893842402
N -2.9124079082 -1.8101682339 -0.0029568628
C -2.6283475289 -2.1657579915 -1.2749190294
C -3.5546555872 -3.1430037913 -1.9244060704
C -1.5322087194 -1.6391631914 -1.9433734044
C -2.3991360103 -0.5305998269 2.0099394879
C -2.6049320279 0.9858125602 2.1093752100
C -1.2822170451 -0.9986202909 2.9521024315
H 3.8329943793 0.4558518000 -4.4769003627
H 4.0684027930 2.1781828228 -4.0884619838
H 3.2100580252 1.7083927755 -5.5697968873
H 1.5934040849 2.4597471980 -3.8142700579
H 1.3559824090 0.7330161107 -4.2052794166
H 1.9683141430 0.4329914399 1.9771679736
H 0.8473490257 1.6820928652 1.3849995294
H 3.9206426137 1.8594823475 1.2967858177
H 2.8736408416 2.7207398118 2.4441346553
H 2.7973763681 3.1141391326 0.7145990773
H -3.2436845918 -3.3734945026 -2.9446925900
H -4.5709552026 -2.7360776123 -1.9406209101
H -3.5873505807 -4.0678112185 -1.3393203980
H -1.2907005263 -1.9022106360 -2.9657927511
H -1.6856757435 1.5169503117 1.8434943653
H -3.4029772238 1.3233484755 1.4405194016
H -2.8760885194 1.2566183983 3.1344868821
H -1.1353670878 -2.0814134265 2.8877692597
H -0.3385955053 -0.5053928298 2.6994788945
H -3.3300158173 -1.0364171648 2.2851568151
H -1.5374338908 -0.7456081151 3.9858298714
