27
CONF2
C 2.7964656745 -0.2432535298 1.3443737359
Si 1.5247746907 -0.3612209555 -0.0226373156
C 1.8564603837 0.9429163822 -1.3323653905
C 1.5592281483 -2.0670009689 -0.8005602094
O 0.0448454811 -0.1074241206 0.6646755252
Si -1.5044809580 0.3102650172 0.2740810892
C -1.5795311847 2.1489797941 -0.0863619900
C -2.0635443616 -0.6591028081 -1.2336099014
C -2.5756128537 -0.1084946803 1.7494860474
H 2.5988574498 -0.9851087402 2.1254273796
H 3.8086646351 -0.4173253441 0.9634536103
H 2.7780255091 0.7469296556 1.8118202554
H 2.8520025282 0.8111716233 -1.7709817970
H 1.1281054853 0.8888051043 -2.1493109681
H 1.8103486305 1.9511664726 -0.9065172803
H 0.8352331109 -2.1472227781 -1.6187223545
H 2.5498989275 -2.2956367690 -1.2092419191
H 1.3160778701 -2.8379966661 -0.0614424099
H -0.9781246878 2.4082987108 -0.9643036393
H -2.6084010741 2.4724085030 -0.2801211312
H -1.2009266344 2.7286035558 0.7625391381
H -3.1047535206 -0.4277619169 -1.4849498352
H -1.9949926675 -1.7379170747 -1.0558829719
H -1.4535813842 -0.4236046055 -2.1130356746
H -3.6233223819 0.1559004170 1.5698349985
H -2.2397913286 0.4331719612 2.6401198285
H -2.5319255722 -1.1795466046 1.9736097785
