48
CONF54
C 3.7060073007 -3.8651916369 -2.1239638319
C 4.0109855192 -2.5950928674 -1.3340544764
C 3.0831231756 -1.4378174925 -1.6945569055
C 1.6079564553 -1.7801105308 -1.4532539141
O 0.8789541796 -2.1607563804 -2.3629176789
N 1.1967317100 -1.6376407180 -0.1613536563
C -0.1914730275 -1.5182961162 0.1628057908
C -0.7635335406 -0.0789048357 0.4208792025
N -1.0842540925 -0.5085725616 1.7879475838
C -0.6293397313 -1.8096661170 1.6151293212
O -0.6208914463 -2.7665389536 2.3531726227
C -2.3213201557 -0.0404383873 2.3668621013
C -3.3666002106 -0.0201728003 1.1890513965
S -2.3567941266 0.4608763150 -0.3219503211
C -3.9434285673 -1.4244657055 1.0127022434
C -4.4846178110 1.0001011131 1.3742462709
C -2.1160618777 1.3310114682 2.9913806440
O -1.3140697047 2.1502887609 2.6035612192
O -2.9545236714 1.5217824867 4.0237580294
O 3.4905183062 -0.3221509742 -0.8798143543
C 2.7520287586 0.8376667186 -0.9633832896
C 2.8899591859 1.7171006612 0.1134232034
C 2.1527967907 2.8942119564 0.1406287094
C 1.2721862763 3.2030661549 -0.8968519249
C 1.1522459603 2.3271608461 -1.9707138877
C 1.8886160968 1.1429889370 -2.0170740346
H 3.7487991790 -3.6799064429 -3.2020342446
H 4.4386713139 -4.6396261942 -1.8826960867
H 2.7121293517 -4.2562711730 -1.8872037108
H 3.9321018299 -2.7835685875 -0.2570656262
H 5.0347911420 -2.2599972339 -1.5332319406
H 1.8602721780 -1.2346916288 0.4885078846
H -0.0274239888 0.7269789572 0.3507027126
H -2.6614978705 -0.7422684875 3.1346165489
H -4.5490006872 -1.6857065981 1.8882559128
H -3.1591340211 -2.1772513869 0.8947320986
H -4.5799950703 -1.4570225813 0.1248916121
H -5.1580412996 0.9704073183 0.5131394746
H -5.0668334893 0.7492785364 2.2667966943
H -4.1003387125 2.0186355753 1.4741702284
H -2.8235979924 2.4239448673 4.3653280175
H 3.5628064589 1.4558987659 0.9239987471
H 2.2572933115 3.5675930998 0.9857286542
H 0.6878988900 4.1165263079 -0.8661267104
H 0.4752364641 2.5566750363 -2.7878164571
H -0.7962310708 -2.0820695648 -0.5528794059
H 3.1825704504 -1.1979423806 -2.7604195023
H 1.7725256917 0.4774939433 -2.8640990502
