53
CONF79
C 2.4310071894 -3.7153385838 -0.7788996838
N 2.0929579242 -2.9649523741 0.4331544425
C 2.1650148810 -3.8762351689 1.5883772967
C 1.7604085820 -3.1888574173 2.8849379151
C 2.6455466031 -1.9706514672 3.1316856005
C 2.5948600204 -1.0586009163 1.9105738947
C 2.9878173540 -1.8047744805 0.6309368292
C 3.0101705710 -0.8695852239 -0.5890391341
C 1.6318286326 -0.3881456750 -1.0595753447
N 1.1363551085 0.7645155325 -0.2931702504
C 1.8727264279 1.9656664529 -0.3196720879
C 2.7962355912 2.2486146494 -1.3337024116
C 3.5300400263 3.4317983643 -1.3134458387
C 3.3369899782 4.3700176135 -0.3048906921
C 2.3974488392 4.1178546640 0.6920341268
C 1.6912506294 2.9193579205 0.6942218353
S 0.5808888263 2.5489857475 2.0366707867
C -0.6381402079 1.6415270842 1.1230251255
C -0.2190892709 0.8220223927 0.0553232647
C -1.1916987103 0.0710664629 -0.6155525752
C -2.5109634569 0.1105682135 -0.1773928061
C -2.9264266338 0.9056826473 0.8832183849
C -1.9720218741 1.6938117005 1.5174302912
S -3.7273020085 -0.8829011258 -1.0518394893
O -3.0199380251 -1.9951208232 -1.7272625341
O -4.8277255174 -1.1982172968 -0.1125963076
C -4.3717506916 0.2267176567 -2.3199268872
H 1.8106326797 -4.6159423485 -0.8260159503
H 3.4926024193 -4.0294730658 -0.8020697959
H 2.2288674164 -3.1277714324 -1.6788170444
H 1.5017930666 -4.7262354399 1.3888001287
H 3.1925647933 -4.2825756741 1.6983650059
H 1.8354686318 -3.9064939483 3.7100570560
H 0.7106254750 -2.8746145917 2.8153684139
H 2.3247394811 -1.4294853101 4.0290698210
H 3.6800186361 -2.3003254407 3.3031000567
H 3.2642318961 -0.1987424001 2.0337101194
H 1.5787881922 -0.6628006525 1.7969303086
H 4.0309603516 -2.1683543142 0.7614848194
H 3.4953261289 -1.3706210471 -1.4326023182
H 3.6520396807 -0.0184209681 -0.3410787033
H 0.9253239074 -1.2048759040 -0.9021878343
H 1.6416181461 -0.1706755607 -2.1370315034
H 4.2517936690 3.6185936198 -2.1020839790
H 2.2251516252 4.8404396794 1.4837715615
H -0.9332188500 -0.5458293050 -1.4667914621
H -3.9600291354 0.9127531742 1.2086618215
H -2.2589200664 2.3341511263 2.3453560546
H -3.5444670204 0.5285926688 -2.9658364442
H -5.1191855431 -0.3430642814 -2.8791510187
H -4.8254873532 1.0883688353 -1.8255660609
H 2.9555256094 1.5406241616 -2.1380503565
H 3.9052190321 5.2938532389 -0.2914081041
