30
CONF10
C 4.1513073424 0.6829889110 0.7140616435
C 3.2547999792 -0.4672411427 0.2609274789
C 1.9104781119 0.0113917748 -0.2859527261
C 1.0030977343 -1.1366972077 -0.7274508040
C -0.2947881925 -0.6845619153 -1.4045645183
C -1.2056631458 0.1740561454 -0.5312584209
C -1.6720686833 -0.5129483180 0.7692459053
C -3.0444924651 0.1234369682 1.1236655011
C -3.3651727762 1.0970141179 -0.0336705866
C -2.5259863573 0.5742683325 -1.2023172622
H 3.6691838977 1.2665556611 1.5058604616
H 5.1080676108 0.3195855166 1.1013395193
H 4.3635869897 1.3648732382 -0.1166363958
H 3.0788240156 -1.1515869739 1.1015358870
H 3.7694367268 -1.0556537151 -0.5101089254
H 1.4068672133 0.6108968874 0.4838921188
H 2.0831635334 0.6870250280 -1.1364219501
H 0.7663020519 -1.7656265537 0.1415614291
H 1.5580286600 -1.7788820183 -1.4245095688
H -0.8601335099 -1.5719504581 -1.7228363868
H -0.0462916564 -0.1294981927 -2.3201770230
H -0.6801826342 1.1034465370 -0.2678086617
H -0.9413752312 -0.4075556331 1.5771016786
H -1.7873683880 -1.5886437195 0.5857920199
H -3.0259328705 0.6364394818 2.0894597608
H -3.8144960336 -0.6512125652 1.1931734721
H -3.0346062598 2.1105954757 0.2228456633
H -4.4349526043 1.1506333905 -0.2568377427
H -2.9972055449 -0.3179470796 -1.6389782508
H -2.3924282233 1.3067980215 -2.0052750229
