34
CONF186
C -4.1329349513 -0.7485473383 -0.5913804149
C -2.7350586514 -1.1142789726 -1.0245326289
O -2.2608497988 -0.1435387123 -2.0368436583
P -1.1892533127 0.9688315210 -1.6874569822
S -0.7379045725 2.1142298572 -3.1739976418
O -1.7312512643 1.6101649461 -0.3346538092
C -1.0293641013 2.7269531903 0.3184398538
C -1.9394337760 3.2552331284 1.3977974600
O 0.1051042682 0.1438860634 -1.0109040814
N 0.7375813591 -0.6899613652 -1.9307863637
C 1.7607068773 -1.2903012626 -1.4117227115
C 2.3687743439 -2.2021864968 -2.3396641256
N 2.8914569745 -2.9448678662 -3.0560366458
C 2.3518812475 -1.1961363375 -0.0654599088
C 2.4281294010 0.0229711239 0.6236554713
C 3.0175401739 0.0666152723 1.8802586308
C 3.5214919661 -1.0940492754 2.4649149798
C 3.4534808803 -2.3049376992 1.7798702246
C 2.8844936020 -2.3563890163 0.5140999818
H -4.1463391604 0.2202787463 -0.0857265089
H -4.8086302554 -0.7152696285 -1.4501243000
H -4.4970038510 -1.5099532678 0.1058906017
H -2.0348149221 -1.1338998626 -0.1844504321
H -2.7017195432 -2.0781521527 -1.5368437959
H -0.8111064973 3.4842570076 -0.4411308543
H -0.0909423910 2.3391543010 0.7279043507
H -1.4387968994 4.0822633488 1.9099694149
H -2.1651214236 2.4781134976 2.1330160276
H -2.8742795093 3.6264761438 0.9695546947
H 2.0531362265 0.9313159845 0.1706559611
H 3.0858763111 1.0141943926 2.4044535332
H 3.9744090809 -1.0524732668 3.4502466788
H 3.8506193389 -3.2097771339 2.2276789471
H 2.8401226183 -3.3002181720 -0.0207803365
