45
CONF1458
O -1.0700994959 0.1446284322 -2.8263416626
C -2.2501399112 -0.6427841101 -2.7114145837
C -2.7067557646 -0.8184132480 -1.2784229833
O -1.7008667192 -1.5931006109 -0.5614947897
C -1.4641656012 -1.0556761922 0.7252789726
C -1.3845977657 -2.2306422305 1.6966581829
O -1.0601245969 -1.8259441347 3.0158869756
O -0.2508919528 -0.2817095120 0.7678604842
C 0.9087914523 -0.8411958682 0.1825928060
O 1.2435564767 -0.1586940484 -1.0191455056
C 1.5286613916 1.2523650572 -0.8483225325
C 1.8543262235 1.7895613232 -2.2327844915
O 3.0052238617 1.1698326295 -2.8081244344
C 2.6775047856 1.4412182674 0.1406982115
O 2.8288187409 2.8472981213 0.3336832367
C 2.3799066697 0.7339346326 1.4528993688
O 3.5397461007 0.8761095725 2.2760671258
C 2.0696872178 -0.7281931125 1.1771799986
O 1.7499477780 -1.3604613424 2.4231727108
C -2.5921266423 -0.0299347301 0.9677815441
O -2.3039763667 0.9920244796 1.8964506690
C -2.8730967134 0.4594963587 -0.4593378448
O -4.1211837452 1.1058470791 -0.6419762559
H -0.3884196664 -0.2344073223 -2.2449147043
H -3.0400414733 -0.1250730315 -3.2669055122
H -2.1103100440 -1.6365997953 -3.1630416673
H -3.6511503080 -1.3852737890 -1.2732541391
H -0.6614736639 -2.9639748321 1.3054530233
H -2.3664892664 -2.7133064342 1.7256577838
H -0.1450027293 -1.4956789850 2.9799854032
H 0.7440219652 -1.8819900929 -0.1134212876
H 0.6336092888 1.7683553443 -0.4698749519
H 2.0770460948 2.8562164339 -2.1481031065
H 0.9756862591 1.6682116596 -2.8797928420
H 2.8023801107 0.2319209238 -2.9178949555
H 3.5940844140 1.0088991790 -0.2903878828
H 3.5171067999 2.9688461984 1.0009821746
H 1.5103777476 1.2088158857 1.9333371985
H 3.3350803583 0.4862949739 3.1359560407
H 2.9511047399 -1.2032791122 0.7271870992
H 2.0501264347 -2.2777070404 2.3890408015
H -3.4736975180 -0.5628366050 1.3472605917
H -1.4349459379 1.3504350039 1.6655607492
H -2.1056447706 1.1886134982 -0.7444487346
H -4.8215932374 0.4979512160 -0.3672260779
