34
CONF51
C -2.0221633361 -0.3072768395 1.8721351571
C -1.1222520620 -0.0114555683 0.8566967418
C 0.2448173552 -0.2924629362 0.9582545028
C 0.6689435768 -0.9044579564 2.1428780935
C -0.1991704257 -1.2156263727 3.1844466120
C -1.5422697377 -0.9058700676 3.0289404976
Cl -2.6544973771 -1.2841580954 4.3337000591
Cl 2.3614217539 -1.3317281142 2.3755232596
C 1.1986969351 0.0338094678 -0.1697326931
C 0.9302890093 1.3974562948 -0.8250291458
N 0.9148869430 2.4598778104 0.1689509141
C -0.0978738637 3.2755458479 0.5189560386
N 0.2763334366 4.0718485727 1.5148597411
C 1.5608470772 3.6802506688 1.7420655097
N 1.9926274793 2.7033002387 0.9529114859
C 1.2404106096 -1.0660340563 -1.2224442732
O -0.0880685006 -1.1441961216 -1.8257739050
C -0.2772232204 -2.1116035890 -2.7347832508
C -1.7220203855 -2.0231492778 -3.2598973584
F -1.8932519184 -0.8145618859 -3.8696673188
F -1.9058856642 -2.9954716449 -4.1979072690
F 0.6042666600 -2.0273532675 -3.7864120471
F -0.0936723921 -3.3709142231 -2.2082135864
H -3.0746858923 -0.0744972975 1.7623097449
H -1.5050086710 0.4540769371 -0.0444215196
H 0.1669912943 -1.6858225627 4.0886712452
H 2.2142990006 0.0722814258 0.2343403839
H -0.0292513714 1.4299941429 -1.3454049848
H 1.7196206537 1.6028002895 -1.5557161386
H -1.0623501788 3.2557551712 0.0279070504
H 2.1955412305 4.1214997462 2.5003807545
H 1.9703698621 -0.8249621672 -2.0015474534
H 1.4847919355 -2.0274928598 -0.7620343819
H -2.4555095141 -2.1394018162 -2.4549420743
