51
CONF48
C 3.3108008077 0.9197771800 -2.5970998212
C 3.6390810041 -0.0355148973 -1.4510295453
C 2.4537688191 -0.8775673354 -0.9395889960
C 1.8505027797 -1.7420677130 -2.0538451578
C 2.9416975631 -1.7901017548 0.2107663443
C 1.4361824353 0.0477647063 -0.3059734117
O 1.6341449003 1.1242154027 0.1863232545
O 0.1788731579 -0.5690139009 -0.2383122244
C -0.8859784229 0.0668667547 0.2919860197
C -1.3272149735 1.3381725355 0.2016530975
C -2.5686831728 1.3922227911 0.9953706736
O -3.3023763289 2.3362399603 1.1997417466
O -2.8395990935 0.1585823417 1.5083399456
C -1.8018540554 -0.7862696925 1.1152026852
C -1.1080017380 -1.3115449335 2.3771060488
C -2.0502360017 -2.1735746604 3.2191228835
C -2.6465763343 -3.3133664216 2.3916083663
C -3.3749087085 -2.7693253647 1.1612831484
C -2.4437938542 -1.9141431134 0.3002881805
C -0.8150926969 2.5215813219 -0.4868259215
C -0.6582553529 3.7167837938 0.2283028724
C -0.1613253754 4.8673850219 -0.3649998563
C 0.1774599302 4.8268653122 -1.7123772270
C 0.0197361229 3.6767728424 -2.4727643858
C -0.4834472795 2.5423727577 -1.8463516815
Cl -0.7199634822 1.1133066423 -2.8342137294
Cl 0.8155549753 6.2674216166 -2.4847338897
H 2.5204638961 1.6244642378 -2.3171731937
H 2.9851029066 0.3827231939 -3.4927148438
H 4.1961040190 1.5043203742 -2.8644999638
H 4.0531231897 0.5275933806 -0.6078514182
H 4.4133104809 -0.7434837331 -1.7697695026
H 2.6558446250 -2.3229470707 -2.5145206959
H 1.3767234164 -1.1350750164 -2.8287812600
H 1.1077270122 -2.4386168390 -1.6586904361
H 2.1186125882 -2.3853365176 0.6166330227
H 3.7014668638 -2.4713497221 -0.1847841878
H 3.3868805000 -1.1991592161 1.0168844366
H -0.7247815880 -0.4594692734 2.9495949633
H -0.2476742288 -1.9082628859 2.0496271217
H -1.4966212799 -2.5691880988 4.0774620135
H -2.8583721472 -1.5482824789 3.6184409308
H -3.3355409433 -3.9031931704 3.0061226378
H -1.8418289543 -3.9889958560 2.0695110898
H -4.2355119429 -2.1682502459 1.4801616347
H -3.7665225895 -3.5907075368 0.5515341496
H -2.9737814089 -1.4744336112 -0.5518321335
H -1.6293251274 -2.5330366850 -0.0953169234
H -0.9131746522 3.7298800970 1.2822122547
H -0.0348058474 5.7762261664 0.2111586666
H 0.2720865925 3.6607376046 -3.5258416851
