57
CONF18
C -0.4148809519 0.8797400882 -5.3511547866
C -0.8994491443 0.2483376680 -4.0532224957
C -0.1624897686 0.8169165740 -2.8430122634
O 0.7672553248 1.6012825886 -2.9958844224
N -0.6033585228 0.4167047493 -1.5927166314
C -1.7493458897 -0.4454630789 -1.5172588238
C -1.5977335087 -1.8145689142 -1.7401864532
C -2.7032451309 -2.6572287963 -1.7151551489
C -3.9682187372 -2.1395375971 -1.4512472308
C -4.1211010294 -0.7748608009 -1.2242736727
C -3.0188946587 0.0737125458 -1.2638669667
C -0.0335127891 1.0636225923 -0.3554292596
C -0.6808482803 0.5151605557 0.9303374035
C -0.2654761500 -0.9022047703 1.3152009489
N 1.1907929148 -1.0314777210 1.3663845648
C 1.7815169353 -0.6611414619 0.0808842264
C 1.4810783926 0.7914225291 -0.2509097185
C 1.6123628204 -2.3551988037 1.8127700090
C 2.9887192588 -2.3029206007 2.4857011647
C 2.9957904167 -1.5455238722 3.7753348360
C 3.5255484483 -1.9538812761 4.9716214030
C 3.4009671282 -0.9962163248 6.0140477201
C 2.7788596835 0.1470310001 5.6026943617
S 2.3204474127 0.0598633333 3.9295992147
C -0.2527853849 2.5817035213 -0.4093097789
O -1.6457307420 2.8614549946 -0.4828518877
C -1.8934250262 4.2522105658 -0.6060068088
H 0.6541825307 0.7090446568 -5.4942505133
H -0.5721835381 1.9609009109 -5.3423829168
H -0.9569013656 0.4539503015 -6.2005043736
H -1.9777402633 0.3952790144 -3.9207114877
H -0.7596816963 -0.8385236896 -4.0794579805
H -0.6058778157 -2.2108444796 -1.9350834233
H -2.5745000474 -3.7200298872 -1.8934754689
H -4.8310856215 -2.7969839064 -1.4247495723
H -5.1056988321 -0.3644058920 -1.0234535056
H -3.1220424590 1.1412183165 -1.1030685630
H -1.7694566663 0.5844256051 0.8862239787
H -0.3531004124 1.1858382368 1.7330922669
H -0.7139204936 -1.6413640821 0.6261675644
H -0.6619764185 -1.1146915226 2.3157598200
H 1.4166338835 -1.3197456907 -0.7354403076
H 2.8674901822 -0.7949333648 0.1332812336
H 1.8759722159 1.4150330410 0.5609308544
H 1.9770958720 1.0835269264 -1.1769306478
H 0.8852990743 -2.7210779525 2.5476704950
H 1.6297777476 -3.0850665289 0.9794163758
H 3.3227793988 -3.3252732993 2.6969792882
H 3.7219299396 -1.8774605260 1.7882440304
H 3.9978984773 -2.9220483636 5.0955833893
H 3.7545239874 -1.1548988268 7.0257663494
H 2.5414042425 1.0260453818 6.1861297039
H 0.1710044227 3.0193725629 0.5105040275
H 0.2706698673 3.0099020171 -1.2729355643
H -1.5153853730 4.8059892008 0.2675594093
H -1.4238066021 4.6631283886 -1.5127998606
H -2.9761480730 4.3856321452 -0.6701547403
