53
CONF70
C 3.1826138242 2.9197291480 -0.7381941094
C 2.5033379914 1.5455858210 -0.7510139638
C 3.5395435368 0.4912007002 -1.1833472111
C 1.3804890542 1.5487737850 -1.7995666655
O 0.3795414746 2.4898500310 -1.4108345776
C -0.6860679550 2.5773571402 -2.3500842315
C -1.5684132174 1.3486891435 -2.3873975926
C -1.8281656394 0.6301560130 -1.2189871103
C -2.6704150450 -0.4718600597 -1.2722644391
C -3.2765285679 -0.8760360049 -2.4555111858
C -3.0175089683 -0.1533979526 -3.6167063289
C -2.1610145253 0.9445490001 -3.5850943511
O -2.9628909323 -1.1637743528 -0.0988968573
C -2.0900311492 -2.1528815874 0.3002697253
C -2.3775980153 -2.7606689982 1.5235314000
C -1.5391742395 -3.7584323210 2.0042657144
C -0.4186881926 -4.1575343319 1.2739768004
C -0.1517869236 -3.5507528424 0.0503117160
C -0.9822966464 -2.5477530080 -0.4481655573
C 1.9062818499 1.1666105627 0.6046490136
C 1.2771249458 -0.0758061219 0.7594023138
C 0.6791586099 -0.4455699263 1.9561696977
C 0.7159030536 0.4449724120 3.0170056741
C 1.3544497604 1.6688684491 2.9240506984
C 1.9405557524 2.0214503442 1.7087182812
O 0.1232285589 0.0180904262 4.2293360932
C -0.9757239713 0.6536252208 4.6670713593
F -0.7450422864 1.9395062400 5.0254682208
F -1.4160488244 0.0028025179 5.7504920097
Br -2.4632319453 0.7033034457 3.3193131274
H 4.0153662359 2.9401252122 -0.0280142065
H 2.4829241063 3.7189192951 -0.4812556544
H 3.5845961255 3.1297374074 -1.7343793406
H 4.3573901330 0.4500054621 -0.4575598407
H 3.9583999825 0.7560700698 -2.1599043506
H 3.0989096888 -0.5066834355 -1.2603835742
H 1.7976742502 1.8314154638 -2.7802476744
H 0.9423144703 0.5433934660 -1.8927986102
H -0.2964768756 2.7806421519 -3.3596630987
H -1.2804708526 3.4447769041 -2.0387568266
H -1.3695670126 0.9166877984 -0.2771247692
H -3.9287405905 -1.7431259747 -2.4582419515
H -3.4773611846 -0.4562172182 -4.5521586684
H -1.9518362290 1.4944725344 -4.4984587915
H -3.2467520744 -2.4353060097 2.0849731347
H -1.7619228721 -4.2240323723 2.9593894206
H 0.2360406749 -4.9336749022 1.6556678487
H 0.7149350009 -3.8531951155 -0.5296928657
H -0.7618821210 -2.0761531142 -1.3992699472
H 1.2285893411 -0.7721674527 -0.0704507465
H 0.1795596865 -1.4025368657 2.0649088316
H 1.3996043951 2.3396670500 3.7736384264
H 2.4271040521 2.9867708809 1.6418162949
