57
CONF29
C -0.7016386139 1.1594591451 -5.2171624815
C -1.3489932777 0.4534179137 -4.0343073910
C -0.4412821137 0.4610075537 -2.8068520202
O 0.6809925780 0.9533883526 -2.8605950998
N -0.9552513625 -0.1024696601 -1.6574835129
C -2.2857876108 -0.6360948773 -1.6690702819
C -2.5041602763 -1.9449838181 -2.0975793407
C -3.7936483200 -2.4658289637 -2.1211463290
C -4.8690986990 -1.6825515714 -1.7115816431
C -4.6503084911 -0.3774528453 -1.2782853974
C -3.3624272834 0.1477792252 -1.2562095490
C -0.1669330592 -0.0854313958 -0.3735480532
C -0.9700561452 -0.7935375967 0.7323410266
C -0.1476563079 -0.9818619056 2.0044150907
N 1.0655462082 -1.7400837673 1.7284785309
C 1.9131925118 -1.0756360377 0.7386054121
C 1.1490409288 -0.8681391819 -0.5670691009
C 1.7449434738 -2.2253570847 2.9182083343
C 2.1176990014 -1.2043535676 4.0283316522
C 3.1026139844 -0.1607900633 3.6067601433
C 4.4003188347 -0.3257963425 3.1972137671
C 5.0282818651 0.8806795334 2.7894804405
C 4.2106451845 1.9710160609 2.8939505696
S 2.6545670802 1.5212372030 3.5082933545
C 0.1216076623 1.3673488914 0.0211232919
O -1.1112733117 2.0435838920 0.2569024655
C -0.8963317667 3.4002925798 0.6049797876
H -1.3702830020 1.1348152510 -6.0825275328
H 0.2422220487 0.6812040333 -5.4880083867
H -0.4786634761 2.2013612003 -4.9759184872
H -2.3069441253 0.9186003251 -3.7726318767
H -1.5962397021 -0.5840735222 -4.2888620330
H -1.6553386806 -2.5457204780 -2.4105821485
H -3.9577775189 -3.4851467170 -2.4559209694
H -5.8751316437 -2.0889783221 -1.7287783002
H -5.4865194584 0.2352867703 -0.9564622027
H -3.1660300785 1.1585904252 -0.9140582552
H -1.2731209082 -1.7823952711 0.3736532879
H -1.8752887913 -0.2288198084 0.9696217568
H -0.7517912946 -1.5456550990 2.7275995183
H 0.0591882652 0.0031715232 2.4664331979
H 2.7802440925 -1.7189970210 0.5438947822
H 2.3178739251 -0.1123628426 1.0938822306
H 1.7852040042 -0.3522764976 -1.2888175511
H 0.8849425297 -1.8472263978 -0.9848930039
H 1.1002807149 -2.9820372841 3.3900010991
H 2.6587300669 -2.7394915726 2.5951020300
H 1.2070631824 -0.7327281344 4.4123925807
H 2.5382641640 -1.7786036407 4.8645100446
H 4.8874771703 -1.2942920743 3.1754596002
H 6.0499861319 0.9404919569 2.4343237353
H 4.4324166832 3.0038726036 2.6658986487
H 0.7327030645 1.3860685858 0.9364000108
H 0.6861748213 1.8624247383 -0.7780610131
H -1.8766717435 3.8534174216 0.7729014805
H -0.2978754981 3.4871704141 1.5259949317
H -0.3796984007 3.9443657492 -0.2007414442
