21
CONF31
C 1.4358121163 -0.4383988104 0.5028089423
C -0.0153897011 0.0000211368 0.2159725214
C -0.0899659302 1.5234456659 0.1590085493
O 0.5601820910 1.9758107017 -1.0457357580
C -0.5037269335 -0.6171867769 -1.1098935054
O 0.4954036870 -0.6356436886 -2.1311159510
C -0.9064856138 -0.4918171054 1.3674306406
O -2.3026615912 -0.2449862787 1.1646072548
O 1.6482951774 -1.8292912427 0.2891407283
H 1.6668434905 -0.2466944777 1.5587155140
H 2.1276286403 0.1639580639 -0.1004886927
H -1.1444955831 1.8303766756 0.1654244172
H 0.4081799984 1.9548208008 1.0426341992
H 0.3901766483 2.9166017136 -1.1515416395
H -0.7717321176 -1.6677456027 -0.9435675874
H -1.4033370905 -0.0861206451 -1.4545477784
H 0.7541869509 0.2869848057 -2.2631220643
H -0.7082358178 -1.5598973359 1.5323516341
H -0.6415989158 0.0435805232 2.2876296873
H -2.6509088125 -0.9295884163 0.5845602764
H 1.6518296085 -1.9482294104 -0.6702713883
