47
CONF215
C -6.0383078629 -0.5711675570 -2.6346802103
O -5.3693580942 -0.7822478770 -1.3578186437
P -5.8515494701 0.0132623641 -0.0591166597
S -6.1483177307 1.9259761476 -0.2370172322
O -7.0857551745 -0.8812596421 0.4204405079
C -7.9039777132 -0.4535431325 1.5462794583
O -4.7165059482 -0.4337498702 1.0089103437
C -3.5422210348 0.3078873087 1.1838495839
C -3.3964776462 1.0354850491 2.3558698283
C -2.2109746468 1.7261784636 2.5807189581
C -1.1930697562 1.7015475173 1.6226391544
C -1.3615883141 0.9720573436 0.4431237009
C -2.5367920062 0.2614113938 0.2267225245
S 0.2637077906 2.6891655679 1.9452426401
C 1.5372982815 1.8253603657 1.0328794880
C 2.2616484950 2.5164081766 0.0606926160
C 3.3007237410 1.8825276828 -0.6142077829
C 3.5831581553 0.5565868486 -0.3224830873
C 2.8646631008 -0.1513902360 0.6355939629
C 1.8470201003 0.4942911417 1.3254872928
O 4.5853133053 -0.0727202346 -1.0638292579
P 5.9855198612 -0.5210073950 -0.3721544383
S 6.7402256758 0.6874618350 0.9420837524
O 6.7646274274 -0.7456496725 -1.7519264656
C 8.1551697640 -1.1796743067 -1.7046188983
O 5.7391212780 -1.9711956150 0.2644705203
C 5.1952231244 -3.0433357867 -0.5676964748
H -5.5127327199 -1.2063217173 -3.3468325230
H -5.9579060378 0.4782282665 -2.9284998256
H -7.0872122752 -0.8704178435 -2.5631567364
H -8.3566417394 0.5175029812 1.3311995620
H -8.6742729398 -1.2163479661 1.6542141874
H -7.2951111009 -0.3998055944 2.4529360581
H -4.1969145796 1.0479343852 3.0877892171
H -2.0807784512 2.2827427962 3.5033936945
H -0.5794028660 0.9511559324 -0.3078250492
H -2.6735234521 -0.3167083140 -0.6808478203
H 2.0165704310 3.5472024944 -0.1716287278
H 3.8789801003 2.4041680754 -1.3689813619
H 3.1031923552 -1.1882081445 0.8472490315
H 1.2881676971 -0.0416541548 2.0856047679
H 8.7691547282 -0.4067301241 -1.2355403634
H 8.2425566329 -2.1220721745 -1.1566518729
H 8.4509577072 -1.3208417672 -2.7433882535
H 5.8938453222 -3.2851917431 -1.3720504088
H 5.0759674841 -3.8961091006 0.0994808452
H 4.2265779110 -2.7471919670 -0.9788735954
