56
CONF85
C -0.2819380330 -3.6965350599 -1.3268474524
C 0.1806143272 -2.5129935576 -0.4788287489
C 1.0326636181 -2.9246306880 0.7219607934
N -0.9506897521 -1.6587001644 -0.0704381657
C -1.9379370745 -1.9812791247 0.8403051758
C -2.2671417652 -3.1993189019 1.4430858329
C -3.3526555485 -3.2232389362 2.3096462056
C -4.1088654418 -2.0670990078 2.5708295434
C -3.7827911638 -0.8565746685 1.9790176354
C -2.6774469684 -0.7959563720 1.1178696066
C -2.0923092125 0.2611334140 0.3484367161
C -1.0378752776 -0.3002919341 -0.3593099743
C -0.1009688428 0.3319723206 -1.2749138457
C 0.5033486222 1.5009943124 -1.0394134221
C 1.4884402211 2.1251778112 -1.9760845710
C 2.9072073602 2.0997496887 -1.3908760431
C 3.3937765623 0.6962358096 -1.0606244692
C 4.7982592250 0.7246490577 -0.4639934433
C 5.2790086691 -0.6435597602 -0.0671126378
O 4.6857969056 -1.6853359092 -0.2807116680
O 6.4687440643 -0.5989164942 0.5610858498
O 3.3647317023 -0.0704341440 -2.2735838616
O 1.1046017217 3.4766411212 -2.3036886197
C -2.5709533773 1.6456629213 0.2798029039
C -2.7731265964 2.2871877241 -0.9516078968
C -3.2219438682 3.6009737411 -1.0168490156
C -3.4833501541 4.2653523907 0.1703518838
C -3.3142308879 3.6723186106 1.4087145493
C -2.8532152637 2.3593612844 1.4535360762
F -3.9280358909 5.5502742006 0.1152916644
H -0.8811369068 -4.4064381198 -0.7515102401
H -0.8753723931 -3.3502394201 -2.1778291415
H 0.5946492141 -4.2282086603 -1.7085253872
H 0.8063174531 -1.8760294215 -1.1104882717
H 0.4940385852 -3.5933926571 1.3979077889
H 1.3517404369 -2.0416892075 1.2841965057
H 1.9246466102 -3.4480733136 0.3655558403
H -1.7114807318 -4.1078511553 1.2485840698
H -3.6250693025 -4.1590602932 2.7875357794
H -4.9591477102 -2.1268953678 3.2430478293
H -4.3727437536 0.0329731719 2.1776967443
H 0.1240178614 -0.1928105693 -2.2036220696
H 0.3231658253 2.0329946240 -0.1039040006
H 1.4791076248 1.5870346105 -2.9282411794
H 3.5900328704 2.5680147408 -2.1107719025
H 2.9232085808 2.7000343403 -0.4715023646
H 2.7104980945 0.2415554496 -0.3269001660
H 5.5138509857 1.1411115721 -1.1849689344
H 4.8329779673 1.3708602296 0.4214072246
H 6.7360806028 -1.5090933924 0.7768395211
H 3.5891373194 -0.9781481719 -2.0225724178
H 1.1345739463 3.9967778414 -1.4888952126
H -2.5750614063 1.7471534879 -1.8713957748
H -3.3791712503 4.0997116953 -1.9672245821
H -3.5289897199 4.2290848652 2.3145048067
H -2.6915882875 1.8878031340 2.4176836346
