31
CONF4
C -4.2358704772 0.5888502597 0.3322764767
C -3.1101289955 0.4019473119 -0.6799324093
C -3.3164684734 1.2606087158 -1.9266271966
O -3.0507279011 -0.9629271060 -1.1309566319
C -1.7718143475 0.8355827369 -0.0360429865
O -1.6636710417 1.9077519762 0.5446223505
N -0.7500992341 -0.0608794990 -0.2185822277
C 0.5733372327 0.0277217773 0.1913563087
C 1.4036878869 -1.0651481123 -0.1120827955
C 2.7437588257 -1.0750203933 0.2340306884
C 3.2595937003 0.0367424362 0.9198048413
C 2.4377359907 1.1050960944 1.2572991169
C 1.1034075995 1.1197426875 0.8906980122
N 4.6736893374 0.1629240686 1.2722512423
O 5.5029274450 -0.3015793657 0.4965766095
O 4.9486188936 0.7626547716 2.3080240303
C 3.5376075617 -2.3287636614 -0.0713205203
F 2.7110126061 -3.3761826396 -0.3074333170
F 4.3267906474 -2.6940257094 0.9634344245
F 4.3141876098 -2.2067683036 -1.1693967866
H -4.2844131080 1.6292789473 0.6589378997
H -5.1860269802 0.3156669471 -0.1350060102
H -4.0741858220 -0.0425910661 1.2130901925
H -3.3096507928 2.3193415780 -1.6585840185
H -4.2802854316 1.0101108687 -2.3782108503
H -2.5223696519 1.0728944240 -2.6556744603
H -3.2771619539 -1.5379506942 -0.3870371991
H -1.0223009986 -0.8946569900 -0.7288586785
H 0.9750233984 -1.9249168442 -0.6135390346
H 2.8627137674 1.9480910457 1.7886133769
H 0.4810832097 1.9664038381 1.1382698542
