27
CONF114
C -3.1477196393 0.5333105049 0.2670125422
C -3.7085680606 -0.7384981609 -0.3599507396
O -5.1120910065 -0.4996245263 -0.5008346074
C -1.7843827112 0.4296143305 0.9192603372
C -0.5939461661 0.2241034110 -0.0636264417
C 0.7992244650 -0.0472635819 0.6046976954
C 2.0074044127 0.1926767828 -0.3679787647
C 3.3346071917 -0.4860250387 0.1150028032
C 4.6222998189 0.0786694903 -0.5695147717
F 4.4724178560 0.0990499229 -1.9017344754
F 5.6566444678 -0.7162300112 -0.2625021114
F 4.8944851450 1.3146619557 -0.1391529569
F 3.2749725061 -1.8070787995 -0.1570783448
F 3.4749502096 -0.3122731958 1.4493811700
F 1.7022621713 -0.3038249057 -1.5891040364
F 2.2175248471 1.5246915911 -0.4761275002
F 0.9556060355 0.7590692768 1.6752609656
F 0.8303382803 -1.3369867170 1.0161621044
F -0.8798556849 -0.8397089347 -0.8600025967
F -0.5039843485 1.3317367112 -0.8442665764
F -1.7502323555 -0.6002864202 1.8216290354
F -1.5504318709 1.5876774174 1.6075037575
H -3.1241933820 1.3509063883 -0.4596044084
H -3.8228750587 0.8350061639 1.0760331561
H -3.2481255991 -0.9347680562 -1.3354778820
H -3.5174163689 -1.5985945586 0.2974137503
H -5.4989155569 -1.2506346426 -0.9624009978
