70
CONF211
C -2.6552912217 0.0590077759 0.2384572603
C -3.9283589693 0.9390763459 0.3153499283
C -5.0860565472 0.1151820274 0.7760606515
C -6.4483293842 0.1858336578 0.6104601218
N -7.0437789192 -0.8924111572 1.2583073004
C -6.0714217523 -1.6767130986 1.8353008520
C -6.0970377565 -2.8642533449 2.5711720615
C -4.8649031364 -3.3742012433 2.9737891818
C -3.6357512178 -2.7441045887 2.6704432928
C -3.6096455914 -1.5563760356 1.9469213571
C -4.8426315646 -1.0512474721 1.5418866876
C -2.4018186640 -0.7247228949 1.5633521946
C -1.1322012019 -1.5677584837 1.4701816899
C 0.0535103187 -0.6970945961 1.0856291764
C -0.2658921498 0.0452293298 -0.2147646325
N -1.4631782256 0.8829880622 -0.0651905751
C -1.6301724091 1.6829162174 -1.2952941324
C -0.4749761925 2.6084848851 -1.5265196718
C 0.1441824296 2.7669132582 -2.6941910617
C 1.3173640362 -1.5278617245 0.8994842952
O 1.2669232799 -2.7450462528 0.7132716625
N 2.5226517333 -0.8677350781 0.8533750571
C 3.7428675101 -1.6759662607 0.6118727362
C 3.9545702275 -2.1559037654 -0.8276618288
C 4.5779333102 -1.1491621750 -1.7914671943
N 3.7558804820 0.0415882471 -2.0633240304
C 2.5109293296 -0.2959527414 -2.7593859208
C 4.5228914830 1.0136054232 -2.8516343858
C 2.6986000174 0.4932088487 1.3286029555
O 2.2934406214 0.8457991786 2.4372724680
N 3.3809054218 1.2496644540 0.4651124086
C 3.7791052694 2.6153746455 0.7863703666
C 2.7031735944 3.6392222173 0.4340421551
H -2.8125119542 -0.6947269681 -0.5629550604
H -3.7293278730 1.7713315325 1.0067079984
H -4.1546111242 1.3764869586 -0.6600380400
H -7.0607266090 0.9065469843 0.0859798800
H -8.0344051036 -1.0729254179 1.2769184176
H -7.0235702019 -3.3730794489 2.8173850846
H -4.8452301997 -4.2982474121 3.5442345315
H -2.7180979805 -3.2079276456 3.0174312935
H -2.2553489465 0.0370797247 2.3472827308
H -0.9353646451 -2.0623669621 2.4266319648
H -1.2750415852 -2.3548722863 0.7201348936
H 0.2235196441 0.0497940652 1.8653535655
H 0.5698765669 0.6958398876 -0.4931159509
H -0.3908642589 -0.6930590191 -1.0344597615
H -1.7866665071 1.0426800101 -2.1852092117
H -2.5206011764 2.3088055474 -1.1811840306
H -0.1745617636 3.2059403942 -0.6655325347
H -0.1340438446 2.1775349032 -3.5652251853
H 0.9428180989 3.4924721899 -2.8178789310
H 3.6771742894 -2.5507988484 1.2667459377
H 4.5980250681 -1.0773409052 0.9397436060
H 4.6519424001 -3.0008931668 -0.7741573122
H 3.0205863655 -2.5662876522 -1.2215776264
H 4.8195754232 -1.6685371245 -2.7384430115
H 5.5277760136 -0.7976074068 -1.3671305096
H 1.8989112545 -0.9640482731 -2.1486698536
H 2.7032593709 -0.7850186743 -3.7311895427
H 1.9367541188 0.6190711416 -2.9354679532
H 4.8187312826 0.6084319308 -3.8354578438
H 3.9165908773 1.9109903842 -3.0146926039
H 5.4286743059 1.2979470127 -2.3060683114
H 3.5255839046 0.8634993901 -0.4977491280
H 4.0138166342 2.6644441036 1.8546644938
H 4.6988237752 2.8279465787 0.2308626116
H 3.0476225212 4.6481460848 0.6819341305
H 1.7837805574 3.4395713966 0.9925543977
H 2.4736456370 3.6055930229 -0.6356448374
