63
CONF40
C 2.2839415204 -2.2349709649 1.6183109368
C 1.1229866369 -3.0768219147 1.0981203050
N 0.1950876867 -2.2626914482 0.3056720491
C 0.8874912878 -1.7158056419 -0.8664481076
C 2.0357220518 -0.8056160971 -0.4415410653
C 3.0119514160 -1.5799654227 0.4438058236
N 4.1396891415 -0.7580687611 0.8809401967
C 4.1184997005 0.3861005016 1.6750700867
C 3.0870666718 1.0987057998 2.2751814164
C 3.4274012603 2.2302786310 3.0226642041
C 4.7546638579 2.6382351725 3.1675348469
C 5.7953879991 1.9257384658 2.5666123252
C 5.4570641324 0.8053095445 1.8263448743
N 6.2382421120 -0.0936484928 1.1241905817
C 5.4540400930 -1.0670898538 0.5335889678
O 5.8358827121 -2.0110915160 -0.1557737838
C -0.9760154438 -3.0656796549 -0.0750135188
C -2.0501001286 -2.2720946250 -0.8178818131
C -2.5107450040 -1.0252317223 -0.0650596401
C -3.4199369134 -0.1301325799 -0.9215567487
C -4.0998910928 0.9833682082 -0.1407634120
C -3.5601101416 1.5261639566 1.0276522535
C -4.1894409634 2.5784208105 1.6924225347
C -5.3669819914 3.0761707382 1.1664394580
C -5.9413884376 2.5688600125 0.0125941819
C -5.2948954233 1.5203776160 -0.6330987656
F -5.9907633568 4.1006263675 1.8097490608
C -2.6494185309 0.4532062155 -2.0970733157
C -1.5729298927 1.3196331830 -1.8787987042
C -0.8416380115 1.8427283456 -2.9401206274
C -1.2107461934 1.4863105720 -4.2272346167
C -2.2704150845 0.6384693965 -4.4918308270
C -2.9863076467 0.1246742064 -3.4108905083
F -0.5022748458 1.9947993004 -5.2721411814
H 2.9805820563 -2.8686709861 2.1782056031
H 1.8982071255 -1.4722815729 2.3031192155
H 0.5742551226 -3.5097091304 1.9422822886
H 1.5211993873 -3.9211474498 0.4973518692
H 1.2751214752 -2.5305402517 -1.5135248914
H 0.1810835172 -1.1316405168 -1.4642862554
H 1.6269579032 0.0554764454 0.0982963757
H 2.5568931834 -0.4290446190 -1.3287138435
H 3.4643004158 -2.3739320867 -0.1630660060
H 2.0505305857 0.8017892968 2.1776675790
H 2.6364773810 2.8002064390 3.4991482084
H 4.9849872435 3.5209615595 3.7548606363
H 6.8301826500 2.2337014002 2.6727014258
H 7.2419245659 -0.0731781681 1.0362046726
H -1.4044981310 -3.4703633835 0.8516904689
H -0.6768876538 -3.9335902522 -0.6970255940
H -1.6925612820 -1.9932694194 -1.8160918394
H -2.9051805946 -2.9397949353 -0.9822415332
H -3.0455543387 -1.3221710636 0.8464235941
H -1.6320255169 -0.4558557210 0.2557966772
H -4.2172234039 -0.7577102342 -1.3401344072
H -2.6376389702 1.1324476726 1.4407593319
H -3.7752631000 3.0015872923 2.6013610845
H -6.8702645396 2.9837834291 -0.3639365541
H -5.7288264849 1.1104603895 -1.5414732325
H -1.2977508328 1.5961623449 -0.8649456010
H -0.0050742531 2.5141762277 -2.7782811378
H -2.5263587113 0.3855763836 -5.5151595127
H -3.8187105909 -0.5476599081 -3.5986551692
