53
CONF6
C -3.5079506105 0.6046153486 1.0864689233
C -2.0607994716 0.1199397398 0.9645063035
N -1.5030819954 0.9686509103 -0.1092825076
C -2.5740046768 1.7392265182 -0.7807369753
C -3.8465105893 1.0211837080 -0.3526231385
N -4.0717781024 -0.1687409796 -1.1819295456
C -5.1818704730 -0.9841616820 -0.6647710527
C -4.7909754692 -1.5563261976 0.6931003098
C -4.4789824042 -0.4212453919 1.6726903367
C -0.1719805831 1.1334684263 -0.3320415787
C 0.3776869968 2.3046687010 -0.9244619196
F -0.4573783014 3.3190216247 -1.2657945393
C 1.7073917891 2.4794393458 -1.1623841935
C 2.6329727151 1.5038120918 -0.7615474230
C 4.0347324063 1.6864617959 -1.0563450148
O 4.4696574065 2.7317154020 -1.6277794986
C 4.9019183416 0.6011473085 -0.6887058935
C 4.3915736889 -0.4708717920 0.0023459607
N 3.0943836742 -0.6087992203 0.3262537063
C 2.7444694794 -1.6747887904 1.2677345470
C 2.2349378517 -1.2878430929 2.6160343171
C 3.6193954887 -1.8673652005 2.4716716907
C 2.1558597644 0.3318912145 -0.1248394362
C 0.7701314550 0.1181661279 -0.0093885718
O 0.2999067430 -1.1192450560 0.3477708861
C -0.0967827924 -1.9012899721 -0.8018741199
C 6.3515146769 0.6327761435 -0.9801007216
O 6.7779266970 1.7425322160 -1.5905051508
O 7.1227364662 -0.2731974438 -0.6953491743
H -3.5236006838 1.5123536609 1.7025239622
H -1.4918484083 0.2547657170 1.8908532006
H -2.0335904422 -0.9405658172 0.6995244396
H -2.6083089709 2.7768328679 -0.4295726988
H -2.4320948239 1.7374232329 -1.8664285341
H -4.7065734526 1.7135698616 -0.3665811507
H -4.2904917620 0.1364379051 -2.1252149744
H -6.1124258364 -0.3934803756 -0.5546360754
H -5.3835396989 -1.7893070176 -1.3797148171
H -3.9195495497 -2.2100234454 0.5663461018
H -5.6063188741 -2.1725813738 1.0878861632
H -4.0801786009 -0.8179781647 2.6141997814
H -5.4148174997 0.0970913100 1.9184718125
H 2.0583889704 3.3892292379 -1.6352885060
H 5.0508169240 -1.2579916619 0.3493257213
H 2.3248690130 -2.5563984885 0.7963780424
H 1.4417510915 -1.8966934941 3.0346008613
H 2.1718268843 -0.2256652162 2.8300289026
H 3.7944594084 -2.8912945932 2.7830490722
H 4.4540868050 -1.1904109382 2.6197079517
H 0.7672367157 -2.0793524943 -1.4531524548
H -0.8879815061 -1.3919404035 -1.3653414677
H -0.4715275732 -2.8483446375 -0.4091715008
H 5.9543106144 2.3394831122 -1.7156651299
