45
CONF44
C 2.4619361731 -3.2011554761 3.6153660836
C 3.0040790085 -2.1729774841 2.9448093318
C 2.3771109857 -1.4732632103 1.8391532185
C 3.0360759166 -0.5728901304 1.0445741025
N 2.2332405549 0.1864550576 0.1782258114
C 0.9657473405 0.8727761635 0.5113298458
C 0.6270340881 0.8210441085 -1.0185888015
C 2.0289042977 0.1938929483 -1.1873777351
O 2.7093544007 -0.1786195528 -2.1148137386
N 0.3585199309 2.0329356335 -1.7323353075
C -0.8814626320 2.4892005088 -2.0382284750
O -1.0951617420 3.5731249159 -2.5697686967
C -2.0241816657 1.5497290690 -1.6884713816
N -2.3095232594 0.7392017336 -2.6462505769
O -3.3987513107 -0.0889627715 -2.3407685634
C -3.3748872762 -1.2061869106 -3.2137909891
C -2.2687327517 -2.1749160519 -2.8382432318
O -1.5171313815 -2.0482757949 -1.8974502766
O -2.2451677917 -3.2068039781 -3.6973736494
C -2.5753297369 1.6838468087 -0.3523484708
C -3.6431644061 1.0212997614 0.2008220928
S -3.8401626351 1.4976017910 1.8564513025
C -2.4422240170 2.5796509437 1.6778601245
N -1.9089938368 2.5656905891 0.4870554234
N -1.9626905706 3.2832992599 2.7350607785
S -0.0189429535 -0.0734033708 1.7246429708
C 0.9173265302 -1.6656982794 1.5388428329
C 4.4867263046 -0.2999037286 1.0528903672
O 5.3337543081 -0.9952933647 1.5833723344
O 4.7840659955 0.8214117042 0.3603863987
H 1.4962178373 -3.6317827767 3.3728333228
H 3.0061652958 -3.6566808488 4.4359125839
H 3.9930147205 -1.8301062631 3.2259942892
H 1.1114495679 1.8884862408 0.8914584082
H -0.1372650896 0.0652077694 -1.2257993573
H 1.1195456683 2.6890225348 -1.8666247260
H -4.3415391697 -1.7080368122 -3.1020835465
H -3.2563535774 -0.8977679789 -4.2597521165
H -1.5415525641 -3.8228261246 -3.4279366782
H -4.3134467127 0.3084460656 -0.2504537740
H -2.5838403044 3.4658024706 3.5084510445
H -1.3319043299 4.0388102336 2.5068416884
H 0.4349512619 -2.3571266414 2.2280282540
H 0.7766303539 -2.0321324851 0.5166385003
H 5.7505606664 0.9278743054 0.3723197122
