42
CONF4
C -1.6210074308 -1.3613685564 5.1980726414
C -1.8852438752 -2.3837115159 4.2893542013
C -1.6009280184 -2.2091835589 2.9420710895
C -1.0462007689 -1.0128238611 2.4772757507
C -0.7912732198 0.0074570156 3.3913557148
C -1.0768819970 -0.1665738933 4.7440975967
C -0.7733295698 -0.8704112017 0.9932283729
C -0.2847201285 0.4880002375 0.5423657575
C 1.0287791626 0.8832365698 0.8177977317
C 1.5074861781 2.1064358904 0.3635272513
C 0.6787528752 2.9500015863 -0.3717442953
C -0.6335105958 2.5707365613 -0.6382616247
C -1.1114978526 1.3459484219 -0.1838915794
C 0.2243505677 -1.9235724897 0.4747570141
O 0.8001151259 -2.7138449705 1.1775098547
C 0.5094926184 -1.9023587382 -1.0383197274
C 1.8085925517 -1.1323685853 -1.3830159128
O 2.8948396578 -1.3025951744 -0.8843868247
C 1.4740641188 -0.1817926607 -2.4728244499
C 2.3191228309 0.7083665170 -3.1244814888
C 1.7775201711 1.4891039507 -4.1400139721
C 0.4246920981 1.3810705360 -4.4918645418
C -0.4183521736 0.4930031941 -3.8332164309
C 0.1269658954 -0.2848889546 -2.8187261407
C -0.5466247086 -1.2848936277 -1.9580211987
O -1.7241897519 -1.5794515259 -1.9866824156
H -1.8421230801 -1.4966901587 6.2518727373
H -2.3121641068 -3.3207624742 4.6323495159
H -1.8047724799 -3.0124611680 2.2402550575
H -0.3753264600 0.9487555172 3.0493104276
H -0.8735276218 0.6395054037 5.4420425499
H -1.7081225404 -1.0820501118 0.4546757055
H 1.6801438436 0.2198856397 1.3807938710
H 2.5319900789 2.3952698067 0.5749005757
H 1.0547177915 3.9008807448 -0.7354704984
H -1.2844774391 3.2253388179 -1.2089415885
H -2.1297338196 1.0409993108 -0.4083884101
H 0.6646059405 -2.9518835624 -1.3174389756
H 3.3638089440 0.7802134108 -2.8408583828
H 2.4085570787 2.1937459949 -4.6722202328
H 0.0339750236 2.0033730222 -5.2906815537
H -1.4685636070 0.4023583384 -4.0901111835
