18
CONF2
C 4.0055207359 -0.0239265950 -0.0438634211
O 2.9946326286 0.9842824762 -0.1088558537
C 1.7008178096 0.5926221692 -0.0545834452
C 1.2808076430 -0.7386585428 0.0584565515
C -0.0760992422 -1.0260911059 0.1047966277
C -0.9985572828 0.0091380402 0.0393858245
C -0.5928319172 1.3386251757 -0.0726097533
C 0.7553119539 1.6274286277 -0.1194551495
N -2.4299384477 -0.3025291074 0.0896843402
O -3.2188684195 0.6360630882 0.0328000273
O -2.7547350905 -1.4824106331 0.1858756828
H 3.9537148835 -0.5738849971 0.9036202047
H 3.9216031519 -0.7220812465 -0.8854920895
H 4.9551714115 0.5076968374 -0.1046915513
H 1.9943370395 -1.5507113652 0.1105777170
H -0.4264774116 -2.0469524885 0.1915115952
H -1.3381488952 2.1223515182 -0.1208990365
H 1.1079223697 2.6488574360 -0.2062273194
