37
CONF21
C -0.9180554406 0.7013403651 -4.7420301903
C -1.3161406936 0.1782305827 -3.3972750795
C -2.4774565777 -0.6328033324 -3.2906286883
C -2.8249863774 -1.1051483051 -2.0537879943
C -4.0068335183 -1.9650348909 -1.7708386475
N -2.0356017959 -0.7709517751 -1.0027679899
C -0.9082638366 0.0331940963 -1.1247912096
N -0.5624440467 0.5008049546 -2.3627338072
N -0.1529067983 0.3616812434 -0.0948325935
N -0.6439214718 -0.1575069481 1.0897953292
C 0.0871220026 0.0309058307 2.1366588452
C -0.4134277687 -0.4649507349 3.4566955464
C 1.4070398923 0.7216550659 2.1299211262
C 1.5063894277 1.9997761055 2.6860855949
C 2.7229843406 2.6766939214 2.7056212169
C 3.8569109806 2.0621724046 2.1825513844
C 3.7655561950 0.7791871120 1.6473875150
C 2.5508817742 0.0899187692 1.6085752547
C 2.4739506279 -1.2959211714 1.0327433940
H -0.7668297918 -0.1309127140 -5.4381083241
H -1.7236538444 1.3180045816 -5.1558272599
H -0.0046125120 1.2930370900 -4.6761330685
H -3.0735260087 -0.8754586486 -4.1608547755
H -4.5648437345 -2.1583665367 -2.6869004305
H -4.6648904501 -1.4768126890 -1.0438204761
H -3.6859427473 -2.9181919533 -1.3364457727
H -2.2530452717 -1.0897606696 -0.0637689295
H 0.2969325553 -1.1829139103 3.8858189907
H -1.3909108335 -0.9407641688 3.3511037460
H -0.4880249825 0.3641454733 4.1711072533
H 0.6169441553 2.4714633657 3.0952941152
H 2.7830373276 3.6742077397 3.1297780984
H 4.8135570606 2.5756443635 2.1969409570
H 4.6558438611 0.2971342707 1.2517913715
H 1.9056965528 -1.2927863772 0.0955348017
H 1.9606026548 -1.9808689563 1.7163035957
H 3.4728680776 -1.6900426602 0.8318376083
