53
CONF93
C -2.3426242905 4.5746305520 -0.5014857109
C -0.8793183358 4.1984372270 -0.4986430442
O -0.7972999772 2.8077444105 -0.0874871861
C 0.4452476273 2.2676811279 -0.0489643329
O 1.4474076769 2.9148266655 -0.3383951135
C 0.4159061128 0.8802261628 0.3938184747
C 1.5854144640 0.1966533190 0.5398513264
N 1.5864357922 -1.0479559866 1.1005845353
C 0.4837582447 -1.6525713117 1.6530563976
C -0.7355207190 -1.0532486761 1.5308128792
C -0.9205037876 0.2308687696 0.7295274025
C -1.8069755964 0.0240221506 -0.5042073450
C -3.0287455760 0.7074160248 -0.5695407359
C -3.8955760820 0.5805735713 -1.6452392644
C -3.5580667366 -0.2520142649 -2.7101586567
C -2.3568378438 -0.9477798502 -2.6823350197
C -1.5056664363 -0.8023585860 -1.5882974307
Cl -0.0029107621 -1.7289576509 -1.6396459863
C -1.9045311828 -1.6432828518 2.1761530796
O -1.9806493645 -2.7487785035 2.6973476729
O -2.9660889366 -0.7932100787 2.1439239786
C -4.1858290806 -1.2976749889 2.7240615696
C 0.7805601927 -2.9381117363 2.3614275891
C 2.9745249059 0.7000921924 0.1768381698
O 3.9459330301 -0.3369775559 0.2441666473
C 4.0505506434 -1.0889134339 -0.9801732446
C 5.1115756020 -2.1567937086 -0.7818872703
N 6.4657979446 -1.6539055199 -0.5123302042
H -2.7782832181 4.4600333941 0.4953611279
H -2.9032573623 3.9512125391 -1.2040284133
H -2.4469375089 5.6200929732 -0.8060030053
H -0.3008043784 4.8081044918 0.2034759288
H -0.4304154619 4.2980244720 -1.4921664172
H 2.4950919277 -1.4820424166 1.2086113974
H -1.4814753334 0.9344998436 1.3518356906
H -3.2900459661 1.3591408474 0.2581457979
H -4.8315507699 1.1298981034 -1.6540821384
H -4.2229502128 -0.3636258469 -3.5605002726
H -2.0749490627 -1.6017529796 -3.5000373107
H -4.9220475756 -0.5063128137 2.5826408446
H -4.5028898136 -2.2104272211 2.2126920561
H -4.0487505212 -1.5053644196 3.7886825745
H 1.8576672815 -3.1205154894 2.3882734870
H 0.3946870335 -2.9180538245 3.3821571021
H 0.2901460526 -3.7747375773 1.8570819070
H 2.9577149217 1.1603719931 -0.8157945222
H 3.2728019426 1.4739909558 0.8923758630
H 3.0825004977 -1.5529789083 -1.2277867153
H 4.3281714681 -0.4073185282 -1.7988232644
H 4.8074751723 -2.8075646338 0.0482691789
H 5.1342180987 -2.7802116099 -1.6839442544
H 6.4307125606 -1.0451111237 0.2998129432
H 6.7572025985 -1.0599881185 -1.2838406362
