51
CONF58
C 0.4154161612 2.5740031518 0.8542265406
C 1.1142905029 1.2620642873 0.7230747961
C 0.9017849899 0.1564972954 1.5291624090
N 1.7802394463 -0.8130490338 1.1550327941
N 2.5641045690 -0.4057805379 0.1422659928
C 2.1681269949 0.8506342087 -0.1326441329
C 2.8311924212 1.5952948547 -1.2041846391
C 2.1560200081 2.5889530825 -1.9249550270
C 2.7935193493 3.2787714332 -2.9506281213
C 4.1133533931 2.9861384656 -3.2781813289
C 4.7911019769 1.9930836574 -2.5731956309
C 4.1604510592 1.3065061863 -1.5452523108
C 1.8826813648 -2.1635644911 1.6712516050
O 0.0581622806 -0.0100319561 2.5776688412
C -1.3409055058 -0.1382913601 2.1783888401
C -1.6147240354 -1.5260375976 1.6713932768
C -1.4908294894 -2.5931210820 2.5646248594
C -1.6159964347 -3.9088616098 2.1438234329
C -1.8766668067 -4.1763738641 0.8010636477
C -2.0369314714 -3.1339071883 -0.0994166592
C -1.9201944148 -1.8099121075 0.3335237677
N -2.0776871616 -0.7586334710 -0.6120787511
C -3.1065518537 0.1743986745 -0.6225016362
O -3.3090945247 0.9645129176 -1.5140302591
O -3.8226720274 0.0959185465 0.5296042358
C -4.8294878136 1.1209662751 0.6564785158
O -1.6151571597 -1.0628160480 -1.8969275248
C -0.3093410964 -0.4871496436 -2.0919969615
H -0.4207190377 2.6790943105 0.1499099147
H 1.1026259890 3.4055374227 0.6731098154
H 0.0114825675 2.6835750392 1.8657309648
H 1.1182926010 2.8077554773 -1.6993282141
H 2.2522763151 4.0416817748 -3.5014369197
H 4.6102467757 3.5249595297 -4.0784422014
H 5.8213685359 1.7586125608 -2.8226858529
H 4.6856784373 0.5374462887 -0.9900898884
H 1.4871326029 -2.1822458553 2.6879973660
H 2.9343845014 -2.4561743574 1.6719768435
H 1.3081371912 -2.8637157444 1.0537979652
H -1.9104394519 0.0648889561 3.0890260469
H -1.5666712857 0.6301273440 1.4384115800
H -1.2616824220 -2.3730817455 3.6038004357
H -1.5080711120 -4.7216661783 2.8541771450
H -1.9728002623 -5.2008087513 0.4563096423
H -2.2506522396 -3.3275834974 -1.1435569067
H -5.3058717647 0.9360602980 1.6192484509
H -5.5563016967 1.0438213375 -0.1555684692
H -4.3708137706 2.1133316503 0.6352725364
H -0.3550890527 0.6029566672 -2.0031720382
H -0.0310131010 -0.7667723921 -3.1101731803
H 0.4142949527 -0.8980132710 -1.3799058143
