39
CONF8
C -5.1607858178 1.6674972103 -3.0538874957
N -4.0343409874 1.1989145706 -2.2558980716
C -3.5075123764 -0.0390313602 -2.2321844489
C -2.4147072478 -0.0095185588 -1.3737431022
C -2.3822659484 1.3369724434 -0.9236265121
N -3.3725040667 2.0536893081 -1.4611803621
C -1.5289669702 2.0233320060 0.0762570944
F -1.5961373060 1.3730526952 1.2908955063
F -0.1895324468 1.9795541277 -0.2982200751
C -1.6186111738 -1.2284627747 -1.1135147854
O -2.1057837666 -2.3390727709 -1.3368072404
N -0.3400782243 -1.0386628952 -0.6620894594
C 0.6525431332 -2.0186982718 -0.4567906294
C 1.7875330613 -1.6589265810 0.2994981857
C 2.8387054141 -2.5658258428 0.4400086991
C 2.7352415243 -3.8149434675 -0.1416805110
C 1.6282598286 -4.1980963534 -0.8748992840
C 0.5878673810 -3.2911678686 -1.0391240287
F 3.7571789549 -4.6952916743 0.0182069629
C 1.9082032247 -0.3315811656 0.9543969277
C 1.1148619558 -0.0241225731 2.0602968551
C 1.2608038721 1.1973895550 2.7065579386
C 2.1896329074 2.1297510952 2.2413813263
C 2.9809495335 1.8284006494 1.1377287524
C 2.8444570418 0.6019001730 0.5022771752
Cl 2.3781871072 3.6797685146 3.0215499890
Cl 0.2718140197 1.5343235540 4.1044380576
H -5.8533337455 2.2149945183 -2.4115674722
H -5.6622215255 0.8003699978 -3.4842803735
H -4.8031878521 2.3224186368 -3.8527988179
H -3.9167239661 -0.8508824901 -2.8151131402
H -1.8061869955 3.0711027863 0.2192073594
H 1.5818365495 -5.1842211923 -1.3237076723
H 0.3876313823 -0.7396230045 2.4282311401
H 3.7004618825 2.5569273207 0.7816453963
H 3.7178255441 -2.3006515164 1.0174988311
H -0.2711435322 -3.5668338074 -1.6319488696
H 3.4659319655 0.3710975297 -0.3565435996
H -0.0388997950 -0.0835406562 -0.5173416539
