51
CONF3
C 3.6367761732 -2.5901219045 2.5567807843
C 3.2770278745 -2.2299392798 1.1079802284
C 2.8360832232 -0.7990373558 0.9573082442
N 3.6894217452 0.1792281453 0.9424983163
O 5.0232022373 -0.2113509485 1.0338381251
C 5.8603278494 0.9672242907 1.0962793811
C 5.7573846269 1.6729354366 2.4331151847
C 1.4369908523 -0.4176038477 0.7057548317
C 1.1229676442 0.8203043938 0.1561395089
C -0.2585671713 1.2140019875 -0.2507236673
C -1.0900786174 -0.0258378951 -0.5871162167
C -1.0632355086 -0.9751363245 0.6128800585
C 0.3390037773 -1.2951778645 1.1034467514
O 0.4975689286 -2.2587807959 1.8581497813
C -2.4879208816 0.2149362497 -1.1317887511
C -3.4402844597 1.0437507717 -0.5041135476
C -4.7126190328 1.1838398306 -1.0722707479
C -5.0847658359 0.5275696147 -2.2399355822
C -4.1420037838 -0.3058081711 -2.8403081915
C -2.8634921817 -0.4746793026 -2.3099632214
C -1.9210258018 -1.4110065236 -3.0280534866
C -6.4533355635 0.7011132462 -2.8394397513
C -3.1800672793 1.8242373980 0.7627562729
O 2.0264342436 1.7628527251 -0.0390283600
H 3.9752299452 -3.6291872395 2.6073523764
H 4.4387412241 -1.9495592882 2.9325178096
H 2.7633236326 -2.4799755548 3.2031200176
H 4.1582998913 -2.3666513015 0.4716367715
H 2.4889022370 -2.8893748872 0.7467174342
H 6.8671495138 0.5737351301 0.9300967242
H 5.5995554926 1.6329578319 0.2638445981
H 6.0128324144 0.9908024688 3.2495255663
H 6.4539736151 2.5170357767 2.4557615326
H 4.7467692034 2.0577639858 2.5960463158
H -0.6877551230 1.7905933673 0.5753030517
H -0.1824335401 1.8931004460 -1.1065731619
H -0.5248477473 -0.5285769719 -1.3763491114
H -1.5452471099 -1.9287586678 0.3726020210
H -1.6128177089 -0.5556043938 1.4652645555
H -5.4346044829 1.8271589112 -0.5743096036
H -4.4105474119 -0.8440725187 -3.7466486727
H -2.4320431304 -1.8832474030 -3.8700105327
H -1.0449409914 -0.8840915193 -3.4231404372
H -1.5527733435 -2.2065457614 -2.3710680153
H -6.3924539376 1.1999937704 -3.8133181939
H -6.9362180399 -0.2678103621 -3.0043888043
H -7.0967797059 1.3009788945 -2.1910914400
H -2.6120672557 1.2613375191 1.5052847859
H -4.1298713374 2.1123682870 1.2199931051
H -2.6280399606 2.7481848673 0.5554160283
H 2.9128687093 1.3899302661 0.3245784172
