37
CONF17
C 4.1360696558 -1.2744995636 2.5938759974
C 4.4748895147 -1.3643220764 1.1185930304
C 5.8409820220 -0.8092362625 0.7770469157
O 3.5111397448 -0.5369850335 0.3616092718
C 2.3473578505 -1.0948220090 0.0306386964
O 1.9955743275 -2.2194089346 0.3364539000
C 1.4588832569 -0.1588612549 -0.7241343373
C 1.8607523418 0.7018821274 -1.7542008146
C 0.9488499176 1.5395731829 -2.3853841252
C -0.3699323983 1.5073253560 -1.9734372216
C -0.8361635572 0.6454076017 -0.9814359914
C 0.1069995797 -0.1809580649 -0.3745282376
C -2.2396213704 0.6170834270 -0.5644795000
N -2.5629638998 0.7247382856 0.7328249803
N -3.8910391780 0.6147609951 0.8001210491
C -4.4526572088 0.4437909271 -0.4274983473
C -3.4028808473 0.4338003374 -1.3371777199
Br -3.4534058565 0.0925242222 -3.1840302832
C -5.9230901676 0.2790299519 -0.6029941079
F -6.3637993078 -0.9081006049 -0.1098898116
F -6.2782200530 0.3313864984 -1.8970902939
F -6.6156841085 1.2463540481 0.0491697934
C -4.5620887568 0.7563989046 2.0909144457
F -1.2293696169 2.3701320515 -2.5460533486
Cl 3.5007147596 0.7231537204 -2.3609853841
H 4.2109660185 -0.2379866859 2.9372931495
H 3.1275080394 -1.6465102280 2.7908185001
H 4.8460466003 -1.8811535638 3.1639878088
H 4.3691214912 -2.3918250125 0.7589146491
H 6.0304671520 -0.8702480194 -0.2978704974
H 6.6051530456 -1.3923304606 1.2989098131
H 5.9235360479 0.2344252974 1.0961833720
H 1.2520698556 2.2113384062 -3.1794971164
H -0.2160978469 -0.8663408972 0.4014247439
H -5.3567976150 0.0136451215 2.1795432668
H -4.9795471131 1.7615442955 2.1918958021
H -3.8137226899 0.5852935224 2.8641629489
