16
CONF3
C -1.1969815148 -0.5850388356 -0.2532836874
C 0.2188995798 -0.6465932267 -0.3340216191
C 0.9895123199 0.4278884686 0.0761259020
N 0.4524235404 1.5630153929 0.5467467904
C -0.8571690627 1.6344875471 0.6478699836
C -1.7254155030 0.6143282742 0.2779940313
Cl -3.4500430790 0.7720530907 0.4252084760
Cl -1.5003175305 3.1334956555 1.2897385375
C 2.4932290507 0.4641035417 0.0026125552
O 3.1035671107 1.3768183711 -0.5045170530
O 3.0595160817 -0.5935691910 0.5991164908
Cl 0.9317917753 -2.0809077204 -1.0286704997
N -1.9815978079 -1.5949308491 -0.6566559715
H 4.0264615904 -0.5126221008 0.5160397500
H -2.9828309009 -1.5314023130 -0.5787870911
H -1.5810452480 -2.4411259042 -1.0255166055
