53
CONF36
C -4.1501642350 -3.0451730237 -1.9144049915
O -3.6789163783 -1.8894337327 -1.1651639323
C -3.6680802483 -0.7336690120 -1.8304847293
O -3.9879917304 -0.5850072726 -2.9869582260
C -3.2464032769 0.4222263025 -0.9017388187
C -4.4437217303 0.7696589919 0.0190097562
C -4.0900988575 0.0886398190 1.3186298563
C -2.7386810335 -0.2881271054 1.3460108149
C -2.1457549718 0.0601465214 0.0703479443
N -0.8947851618 0.2546857882 -0.1518511990
N -0.5754114913 0.7584575475 -1.3786576477
C -1.6048106665 1.2523930125 -2.3367261948
O -2.8122973301 1.5410900809 -1.6648008037
C 0.7344654871 0.8309537516 -1.7723049108
O 1.0849404510 1.4681804890 -2.7551482278
N 1.6658748073 0.1426378522 -0.9455296112
C 2.9065564418 0.8050565713 -0.6860296179
C 4.1128029635 0.2261684922 -1.0756136708
C 5.3071026445 0.8904962624 -0.8278551831
C 5.2629673277 2.1326971767 -0.2123302339
C 4.0716803988 2.7363705124 0.1577117832
C 2.8818482511 2.0567119714 -0.0750132157
O 6.4713757115 2.8431063156 -0.0267434856
C 7.1123492976 2.6287860134 1.1436702520
F 8.2192545245 3.3797456911 1.1473071636
F 7.4755578772 1.3366849511 1.3161779762
F 6.3668133121 2.9663158671 2.2212589799
C 1.4454912027 -1.1956336836 -0.6125196521
O 0.6407479407 -1.9136323185 -1.1703110170
O 2.2485051767 -1.5677878880 0.3940069780
C 2.1761426162 -2.9737447557 0.7420648980
C -2.1757549394 -0.8745838685 2.4768438798
C -2.9846560516 -1.1008132417 3.5839185502
C -4.3293866792 -0.7303471483 3.5336180330
C -4.9068981669 -0.1312209731 2.4158883061
Cl -5.3374080110 -1.0342984178 4.9399635069
H -5.1798419404 -2.8803853315 -2.2384162823
H -3.5041152680 -3.2112468694 -2.7786476817
H -4.0899954474 -3.8790553762 -1.2175223664
H -4.4665502683 1.8582842377 0.1468981724
H -5.4069331024 0.4552537635 -0.3909520394
H -1.2477012415 2.1861252845 -2.7711098649
H -1.7497167992 0.4976024045 -3.1219100154
H 4.1181561174 -0.7377187789 -1.5728324939
H 6.2577221734 0.4621158513 -1.1245407540
H 4.0766195036 3.7144865937 0.6250683773
H 1.9342797523 2.4981764939 0.2166654526
H 2.9114451089 -3.1067166780 1.5342202173
H 2.4259965171 -3.5887368728 -0.1253237874
H 1.1737080270 -3.2189369216 1.0996697034
H -1.1299433013 -1.1632428039 2.4928295705
H -2.5833589826 -1.5676563305 4.4759035044
H -5.9530276912 0.1539140000 2.4137566971
