38
CONF1291
F -0.1035090399 1.3622700056 -2.2864450641
C -0.8909316090 1.0282550747 -1.2459779783
F -0.7651634057 1.9691187271 -0.2821081227
C -0.4539965559 -0.3583776128 -0.6887372512
F -1.4597050733 -0.8537404104 0.0714476686
F -0.2341585731 -1.1917570277 -1.7300044734
C 0.8419990042 -0.2985652603 0.1957760438
F 1.7305422135 0.5358109322 -0.3890760098
F 0.5089877152 0.1930250658 1.4110798530
C 1.5238885242 -1.6995440815 0.3872142605
F 0.5638000443 -2.6324779927 0.5816522086
F 2.2108216766 -2.0035599993 -0.7368738352
C 2.5069251293 -1.7460445669 1.6063201523
F 3.2436865575 -0.6113134010 1.6340584388
F 1.7866345013 -1.8345378060 2.7442363581
C 3.5002972773 -2.9547980546 1.5746395840
F 4.4333156608 -2.7814877328 0.6327693000
F 4.1064269909 -3.0465214056 2.7656233061
F 2.8397526413 -4.0961335284 1.3352288205
S -2.7104305042 1.0924672212 -1.8797905916
O -2.8947477465 -0.1498604239 -2.6369573878
O -2.7335583955 2.4062251350 -2.5342340134
N -3.7044899632 1.1092124798 -0.5826892473
C -4.3375256160 -0.1315878070 -0.0956166498
C -5.8575960103 -0.0321750060 -0.1560593431
O -6.3405665517 0.1187416741 -1.4908808714
C -3.9050003465 2.3688021339 0.1807104029
C -3.5352997290 2.2325449615 1.6507855088
H -4.0081524004 -0.9617825017 -0.7215976188
H -4.0174821083 -0.3291486296 0.9338336179
H -6.2639961896 -0.9751868553 0.2226510228
H -6.2271309047 0.7749871759 0.4911716236
H -6.0923512311 0.9997676938 -1.8001083214
H -3.3049038425 3.1470153741 -0.2934258677
H -4.9546116203 2.6660767636 0.0712366833
H -3.6169819294 3.2167856129 2.1206682784
H -4.2082016931 1.5540420447 2.1813118391
H -2.5081367673 1.8762523888 1.7706424570
