71
CONF33
C 5.9405365804 -3.2863117204 2.8918510337
C 5.8384912018 -3.2812289540 1.3939321210
C 4.7978574549 -2.6125320908 0.7294373547
C 4.7251303210 -2.5643598803 -0.6733395767
C 5.7168571331 -3.2125793749 -1.4106669023
C 6.7456770160 -3.8979935659 -0.7717205387
C 6.8032958477 -3.9293240318 0.6167906171
C 3.5962062313 -1.8499209991 -1.3619580218
N 3.8009074100 -1.9325333865 1.4807162581
C 2.8978967137 -2.5289490052 2.2956295204
O 2.8448300186 -3.7411574521 2.5098080849
C 1.9464459093 -1.5614883241 2.9967671538
N 1.8197327939 -0.2796892847 2.3163401137
C 1.3319980890 0.7832161288 3.2040096530
C 1.2719703025 2.1043515653 2.4503448287
N 0.4037681115 2.0017118034 1.2739351663
C 0.8995052697 0.9353099902 0.4002588446
C 0.9266520160 -0.3805436100 1.1553145851
C 0.3210510382 3.2978191835 0.5873454957
C -0.6045629726 3.2816366865 -0.6290798665
C -2.0366345754 2.8360069671 -0.3106080784
C -2.7449615808 2.2147270184 -1.5310707378
C -2.0984717892 0.8804475119 -1.8761361449
C -1.2508362055 0.7572712527 -2.9787894832
C -0.5737807950 -0.4334351758 -3.2417740976
C -0.7715492048 -1.4985947958 -2.3823837075
C -1.6193245492 -1.4296788868 -1.2887619267
C -2.2799667046 -0.2304317327 -1.0451573442
F -0.1107755665 -2.6642456717 -2.6220930897
C -4.2452700018 2.0571870169 -1.3576617987
C -4.8554126097 1.9611732458 -0.1048303236
C -6.2327744756 1.7772702547 0.0153690771
C -6.9861487135 1.6920157869 -1.1404827898
C -6.4265915467 1.7838238085 -2.4043893434
C -5.0510318285 1.9654930601 -2.4985600194
F -8.3317477194 1.5157368148 -1.0340603976
H 5.2376693015 -4.0031144298 3.3297208526
H 6.9512507304 -3.5583034648 3.2044140413
H 5.6943023398 -2.3042488984 3.3076786781
H 5.6719699891 -3.1847529480 -2.4956684405
H 7.6164855356 -4.4493733022 1.1153650851
H 3.7039101876 -1.9196200818 -2.4465155501
H 3.5579298956 -0.7884609080 -1.0905519165
H 2.6301670104 -2.2854114029 -1.0826774195
H 0.9836235881 -2.0853514054 3.1267009132
H 2.3619413214 -1.3987235711 4.0005965578
H 0.3276913409 0.5401455784 3.6005197685
H 2.0184414142 0.8813739621 4.0525932966
H 2.3015641684 2.4003978012 2.1632628150
H 0.8767851267 2.8801580781 3.1169359004
H 0.2314025557 0.8228664171 -0.4576120980
H 1.9157650315 1.1626985604 0.0163913969
H 1.2812063134 -1.1758527954 0.4903904362
H -0.1017242414 -0.6429217759 1.4707592370
H 1.3254227990 3.6387421676 0.2652175228
H -0.0456148494 4.0298814173 1.3198678643
H -0.6168098219 4.2909989232 -1.0566436707
H -0.1742954168 2.6382417311 -1.4042590061
H -2.0116462594 2.0999199556 0.5003429142
H -2.6195202930 3.6921475849 0.0502122979
H -2.5880023663 2.8812566925 -2.3891909134
H -1.1027277655 1.6076605010 -3.6381767670
H 0.0935673106 -0.5322282473 -4.0912318154
H -1.7490390020 -2.2920274546 -0.6435541952
H -2.9398378074 -0.1578447505 -0.1853248900
H -4.2613105792 2.0304587458 0.7999390140
H -6.7113828769 1.7035658411 0.9860663652
H -7.0542960123 1.7180495239 -3.2866834304
H -4.5924286143 2.0376809211 -3.4812971545
H 7.5082894304 -4.4015114694 -1.3580127258
H 3.6468929432 -0.9383357515 1.3333394601
