40
CONF4
C -3.8000805500 -3.1568777589 -1.7054305328
C -3.1158886092 -1.9501453831 -1.1280799377
C -2.0691197283 -2.0834464097 -0.2116565774
C -1.4545788539 -0.9715042794 0.3460226533
C -1.8673317710 0.3181274550 -0.0078926600
C -2.9173581330 0.4588911902 -0.9218892998
C -3.5290837743 -0.6599108847 -1.4704921081
C -1.2604675027 1.5082775974 0.5868500509
C -1.8762128384 2.6180391081 1.1346504667
C -0.8256827124 3.3936159013 1.6539084734
N 0.3628252190 2.8386273091 1.4524740603
N 0.0908748267 1.6912371003 0.7949098845
C 1.1783484484 0.9075968447 0.3294693299
C 2.2867409315 0.7378648891 1.1578475087
C 3.3604462510 -0.0203631854 0.7136809965
C 3.3030241635 -0.6037188819 -0.5472712834
C 2.2115874238 -0.4169151868 -1.3881553616
C 1.1429037869 0.3506742760 -0.9487746157
S 4.6871637018 -1.5954137769 -1.1185600754
O 4.6673639398 -1.5803775502 -2.5858010313
O 5.8624993076 -1.2099159652 -0.3293567327
N 4.2431148849 -3.1716608679 -0.6297321969
C -0.9496729832 4.6855133244 2.3928357895
F -1.4882915166 4.4964675100 3.6262432541
F 0.2286482159 5.3040984131 2.5555616143
F -1.7827113775 5.5325953603 1.7369560151
H -4.1037753028 -2.9833038697 -2.7414140125
H -3.1497711517 -4.0346734683 -1.6783142033
H -4.7051078687 -3.3979182504 -1.1353841301
H -1.7350028708 -3.0760409934 0.0765845176
H -0.6533545603 -1.1028192361 1.0660160387
H -3.2385488102 1.4539291404 -1.2138230358
H -4.3374951634 -0.5296657603 -2.1845091253
H -2.9368646900 2.8037757639 1.1943404973
H 2.3009392901 1.2101150237 2.1326184165
H 4.2389034688 -0.1545170263 1.3343316305
H 2.2129604727 -0.8442246262 -2.3842663816
H 0.2924891088 0.5267596213 -1.5961329109
H 4.9336379528 -3.5228094931 0.0276351568
H 4.1919295650 -3.7699834455 -1.4492949534
