42
CONF13
C -3.0133622344 1.9653971450 3.1928315016
C -2.6136569897 2.4875329049 1.9652099031
C -1.9737850923 1.6727679051 1.0345914436
C -1.7275687565 0.3274145079 1.3232896747
C -2.1245086700 -0.1877405884 2.5592408042
C -2.7680975057 0.6255529766 3.4875622490
C -1.0501162625 -0.5784720085 0.3100957012
C -1.9640653513 -1.1708793512 -0.7437874256
C -3.2188609246 -0.6409554946 -1.0419581801
C -4.0080630659 -1.2135412420 -2.0390375651
C -3.5512481738 -2.3205001205 -2.7479262974
C -2.2981690646 -2.8571964723 -2.4531758156
C -1.5126351129 -2.2856307942 -1.4586999600
C 0.1185671553 0.1808661566 -0.3121459826
O 0.1555927481 0.5585508859 -1.4639343619
C 1.2979829728 0.4156817847 0.6316861170
C 2.1248541976 1.6330431546 0.2143724130
O 1.7468301427 2.7865808884 0.2629586664
C 3.4416191746 1.1486053170 -0.2437532903
C 4.5056474904 1.8785545017 -0.7625727438
C 5.6585160093 1.1820072940 -1.1117819604
C 5.7451021781 -0.2077903000 -0.9433822506
C 4.6810065277 -0.9368402159 -0.4217376731
C 3.5284296470 -0.2387647302 -0.0768197895
C 2.2773994373 -0.7679562054 0.4995621317
O 2.0408189506 -1.9171863561 0.8123559769
H -3.5113637480 2.6004306415 3.9187601896
H -2.7983003152 3.5310550023 1.7300463751
H -1.6710862751 2.0873073508 0.0765123567
H -1.9298138580 -1.2311549577 2.7910780156
H -3.0745721240 0.2131291007 4.4439047428
H -0.5893317719 -1.4046746597 0.8709782149
H -3.5899784004 0.2171506174 -0.4913099021
H -4.9843729026 -0.7918500423 -2.2580035381
H -4.1677748896 -2.7667723710 -3.5219958734
H -1.9343453085 -3.7237947606 -2.9967749583
H -0.5363637300 -2.7065179738 -1.2299327228
H 0.9420716781 0.4944170590 1.6650095443
H 4.4351505486 2.9537011086 -0.8893518556
H 6.5082330736 1.7191289012 -1.5203379722
H 6.6597296645 -0.7190468706 -1.2252003911
H 4.7438902224 -2.0116099800 -0.2883735073
