35
CONF26
C -4.0356799206 0.7706235376 -1.6896967600
C -3.4277854964 -0.6086927883 -1.6531044110
O -2.3558616297 -0.5636844752 -0.6564461540
C -1.6838969995 -1.6780972177 -0.4616939077
N -1.9099805758 -2.7940713162 -1.1033636985
C -1.1491445618 -3.8562931151 -0.8070871684
C -0.1357478994 -3.9092386697 0.1109336641
C 0.1072056903 -2.7072357426 0.7946146504
N 0.9809861155 -2.3480371991 1.7305655812
C 0.6601051435 -1.0505650528 1.9375042340
N -0.3338004478 -0.5255533212 1.2288310259
N -0.6962981258 -1.6041058464 0.4830240655
S 1.6275316843 0.0078122905 3.0361822320
O 2.3054292512 -0.8567617357 3.9903490065
O 0.7893582332 1.1403057870 3.3988321531
N 2.8733609882 0.5996823531 1.9947189090
C 2.5201588857 1.5395389347 1.0021523620
C 2.2841223767 1.1810477444 -0.3356751287
C 1.9407337610 2.1110614317 -1.3052207187
C 1.8124106159 3.4452098174 -0.9407836770
C 2.0658562956 3.8481297128 0.3629492150
C 2.4369389581 2.9080056681 1.3172027588
Cl 2.8658165616 3.4681184339 2.9046865550
Cl 2.4710893741 -0.4942587246 -0.8220260553
F -1.4491512533 -4.9539903305 -1.5085941659
H -3.2922294910 1.5177771620 -1.9778836375
H -4.4464971207 1.0426353526 -0.7144922895
H -4.8455620557 0.7846737072 -2.4244749927
H -4.1443739943 -1.3770942682 -1.3478848664
H -2.9900090781 -0.9027775137 -2.6117412550
H 0.4419531835 -4.8016923062 0.3032837706
H 3.4069161272 -0.1934983988 1.6459060819
H 1.7727550511 1.7882218014 -2.3253320445
H 1.5317648880 4.1812050347 -1.6862088709
H 2.0015255659 4.8915992372 0.6460680302
