34
CONF110
C -1.3578282602 -1.3153764077 2.2503563861
C -1.2101874475 -0.6347223144 1.0500327067
C 0.0121061383 -0.0956815670 0.6354032205
C 1.0950228882 -0.2658043841 1.5015873147
C 0.9912435515 -0.9427343636 2.7129765817
C -0.2446872298 -1.4617562374 3.0676435211
Cl -0.3968693943 -2.3196372995 4.5919748028
Cl 2.6756975526 0.4066115791 1.1139450095
C 0.1107744244 0.6630725134 -0.6690835185
C -0.5031459042 2.0746551465 -0.5587858036
N 0.2182023464 2.9046169672 0.3929790895
C 1.2824507453 3.6996547012 0.1679115115
N 1.7097303509 4.2297629453 1.3078286987
C 0.8482933610 3.7024971378 2.2229547194
N -0.0730485326 2.8920255917 1.7169315647
C -0.5709309463 -0.0594336597 -1.8231845941
O 0.0704168180 -1.3657264318 -1.9330576330
C -0.6282431838 -2.3175857899 -2.5693782500
C 0.2400853296 -3.5843650813 -2.6744203287
F -0.4743406996 -4.5521626276 -3.3163168386
F 1.3371245122 -3.3006208368 -3.4339812206
F -1.7864698008 -2.6524883107 -1.9009406514
F -1.0350707240 -1.9251519852 -3.8215607495
H -2.3190985575 -1.7216050013 2.5419161552
H -2.0845997571 -0.5146160460 0.4186235919
H 1.8522272527 -1.0547644611 3.3601103859
H 1.1638324793 0.7816746011 -0.9395812482
H -1.5470074020 2.0212451147 -0.2372521819
H -0.4592137038 2.5737526825 -1.5313205872
H 1.6950036656 3.8584550914 -0.8202542481
H 0.8914305831 3.9236487309 3.2821015772
H -1.6447437461 -0.1862881833 -1.6581124687
H -0.4122656295 0.4849223014 -2.7584759666
H 0.5541092375 -3.9460742167 -1.6895701463
