38
CONF1
C 2.8940194791 0.5667945675 -2.0455797284
C 2.8705290489 -0.0977340007 -0.6870943457
C 3.3970346522 -1.5182998378 -0.6926442324
O 1.4407502040 -0.1283535922 -0.2914431193
C 1.1538294354 -0.1366171699 0.9983722417
O 1.9553542247 -0.1303728900 1.9138522907
C -0.3722771889 -0.0928369374 1.2637643647
C -1.1164175080 -1.1848109144 0.5035498985
C -0.5092534105 -2.4239440010 0.2895371280
C -1.2043612288 -3.4687067129 -0.3089368948
C -2.5265305431 -3.2593556349 -0.6816279037
C -3.1648383674 -2.0462921068 -0.4655362945
C -2.4483455999 -1.0114323087 0.1305980958
Br -3.4975816186 -4.6902991892 -1.5134813840
C -0.8188620929 1.3266137973 0.8925655459
C -0.9476323496 1.7110585715 -0.4454092899
C -1.3200303416 3.0069120659 -0.7817420803
C -1.5560460843 3.9197680138 0.2398375468
C -1.4288376636 3.5702876118 1.5758625438
C -1.0559884963 2.2656299213 1.8940294084
Br -2.0770840386 5.7105784129 -0.2138075231
O -0.5726066246 -0.3496265321 2.6473933121
H 2.3274140625 -0.0236128830 -2.7722633311
H 2.4716630028 1.5739872658 -1.9948544522
H 3.9294733686 0.6405863571 -2.3897009559
H 3.3930786858 0.5107280973 0.0565565828
H 4.4491007588 -1.5091227122 -0.9925568611
H 2.8367370973 -2.1278524575 -1.4085790051
H 3.3248727881 -1.9718262336 0.2992977083
H 0.5206985632 -2.5924907433 0.5910843526
H -0.7218890691 -4.4240507752 -0.4791438435
H -4.1999887326 -1.9024814055 -0.7525604841
H -2.9447713072 -0.0622113300 0.3023463926
H -0.7664827676 0.9950547433 -1.2395923711
H -1.4256793817 3.2951609389 -1.8211663658
H -1.6165168173 4.2933705224 2.3611993005
H -0.9597898366 1.9801205691 2.9348912895
H 0.2872552052 -0.2143211565 3.0829825741
