29
CONF3
C -0.1147424756 1.6090280472 -1.5399679994
C -0.3211365853 0.6118842244 -0.4184249240
C -0.7644108064 1.2484111808 0.9210991049
C -0.4488327370 0.1548793353 1.9811106375
C 0.1011788662 -1.0024877817 1.1252071916
C 0.9063425299 -0.2553228657 0.0243076953
C 2.0783976445 0.5697105358 0.5623160476
C 1.4712582033 -1.1753724965 -1.0638127278
C -1.0906418976 -1.5762136285 0.3322384693
C -1.3547616677 -0.4870500388 -0.7494926374
O -2.6771417843 0.0638210581 -0.7257229233
H -1.0509748662 2.1335409428 -1.7563270856
H 0.2111275811 1.1139661214 -2.4618406510
H 0.6366683070 2.3582683889 -1.2688286198
H -1.8221288422 1.5151856364 0.8926795137
H -0.2019766888 2.1688357070 1.1054369857
H 0.2893740934 0.4978228726 2.7121196156
H -1.3377957371 -0.1518044204 2.5403037732
H 0.6663858769 -1.7503444891 1.6906375032
H 1.7844369124 1.3184576004 1.2990775299
H 2.8149082957 -0.0912935234 1.0331407478
H 2.5849352884 1.0903051596 -0.2576974927
H 2.2835266692 -1.7832110615 -0.6497466284
H 0.7384548083 -1.8600058736 -1.4938542322
H 1.8945042828 -0.5828304406 -1.8823303376
H -1.9736937359 -1.7012065565 0.9670434005
H -0.8626388364 -2.5480182436 -0.1164723198
H -1.1582040459 -0.8750001732 -1.7595019459
H -3.2824186634 -0.6139557047 -1.0426978072
