75
CONF8
C 7.8642029215 -0.6714974568 -3.5409439733
C 6.5462528969 -1.2721688136 -3.0437151462
C 6.8313948491 -2.5100573631 -2.1896108295
C 5.6959859972 -0.2420597210 -2.2595417006
C 5.4138630143 1.0246653952 -3.0838483984
C 4.3907757403 -0.8412001790 -1.8185811758
C 3.9711701399 -0.9435781364 -0.5578645565
C 2.6616241510 -1.5364799516 -0.1134978887
C 2.9414103061 -2.8017005165 0.7120660665
C 1.8549459258 -0.4680428733 0.6511610577
C 1.5945768076 0.7883770517 -0.2319376279
C 0.2250278796 1.3706470626 0.1965732559
C -0.1104123762 0.5983975828 1.4696574635
C -1.5030149973 0.5756152892 2.0197928688
C -1.5699098654 -0.1941859587 3.3137665257
C -0.9722027638 -1.6064721277 3.1644411314
C 0.4295430941 -1.5914657348 2.5407531203
C 0.4507179833 -0.8364395317 1.2045888755
C -0.3812838030 -1.5679721125 0.1429893418
C -2.5491217894 1.1645920766 1.3986527278
C -3.9224336588 1.1807200234 1.8528251863
C -4.9838026819 1.7224799437 1.2114422984
C -4.9305075300 2.3453420759 -0.1567042690
C -5.7913172627 1.5141486181 -1.1244586999
O -5.1994363499 0.2154399134 -1.3251389456
C -7.2270563747 1.4074189171 -0.6085288446
C -7.2826298917 0.8447810316 0.8149044121
C -6.3755251649 1.6225388366 1.7959208169
C -6.9649666569 2.9993528474 2.1429782658
H 8.4770594327 -1.4428096502 -4.0192639905
H 7.7099414811 0.1283883534 -4.2698918030
H 8.4381104621 -0.2609891319 -2.7004740641
H 5.9547875510 -1.5827630767 -3.9188630338
H 5.9077040570 -2.9981276636 -1.8655529707
H 7.4282293304 -3.2381336767 -2.7488362608
H 7.3952484619 -2.2299307407 -1.2906417961
H 6.2649014509 0.0427018830 -1.3613421867
H 4.7502079982 1.6974438714 -2.5315590404
H 6.3316026476 1.5719839010 -3.3156383728
H 4.9223651738 0.7649047987 -4.0293663949
H 3.7389580058 -1.1951702576 -2.6228816216
H 4.6229355922 -0.5895796919 0.2464521358
H 2.0977983594 -1.8197106578 -1.0131711280
H 2.0259284567 -3.3614807484 0.9169443973
H 3.4069993208 -2.5444573545 1.6707552202
H 3.6252750791 -3.4621656709 0.1688513086
H 2.4610395054 -0.1656207599 1.5194405153
H 2.4022833890 1.5164595523 -0.1135389779
H 1.5860696963 0.5051957562 -1.2903905145
H 0.2574671208 2.4511315567 0.3678198009
H -0.5257435392 1.1889251710 -0.5795504748
H 0.5343955124 0.9978344911 2.2723123280
H -0.9756064582 0.3505281950 4.0635593459
H -2.5882994953 -0.2640075892 3.7027519409
H -1.6456200275 -2.2169710551 2.5509148775
H -0.9301812068 -2.0836228704 4.1503911297
H 0.7766885898 -2.6223465243 2.4220951898
H 1.1260418592 -1.0937823488 3.2309431812
H -0.0537845512 -2.6086351439 0.0470950456
H -0.2848380470 -1.0971200700 -0.8400421994
H -1.4442175134 -1.5718792203 0.4013606848
H -2.3373908313 1.6807648324 0.4663172857
H -4.1289136469 0.7162436723 2.8159254083
H -3.9135436982 2.4128314402 -0.5486505345
H -5.3403454649 3.3633439504 -0.1301473610
H -5.7865871757 1.9836293145 -2.1144279015
H -4.9644039966 -0.1304841459 -0.4517129720
H -7.6766700103 2.4079955448 -0.6399209007
H -7.8087581126 0.7747413372 -1.2885324587
H -8.3158713567 0.8553647500 1.1823056443
H -6.9635247302 -0.2054408145 0.8020740593
H -6.3121851894 1.0457348087 2.7270437166
H -7.0979889311 3.6262410866 1.2567461265
H -7.9450283095 2.8777083187 2.6162946475
H -6.3104051041 3.5339360884 2.8387441428
