25
CONF67
C -0.4889927353 -0.9653285310 1.4267654043
C 0.5236750880 -2.0732975900 1.0938895551
O 1.7434021791 -1.5441809043 0.5766908027
N -0.5823445117 0.0007102747 0.3525456286
C -1.2023574895 -0.4289120443 -0.8826753459
C -0.4663206407 0.1451437124 -2.1035121777
O 0.9477236855 -0.0094067331 -1.9943019485
C -0.7028504665 1.3966309359 0.7157886379
C 0.6052770133 1.9284921623 1.3232233039
O 1.7443048708 1.5475235029 0.5537974255
H -1.4598497496 -1.4300663573 1.6931607171
H -0.1369047521 -0.4409200452 2.3222554670
H 0.0945028312 -2.7975849408 0.3861121097
H 0.7704961476 -2.6246506054 2.0074606159
H 1.5493891539 -1.2587927020 -0.3329775243
H -1.1364386615 -1.5218758085 -0.9297813920
H -2.2789867369 -0.1728772354 -0.9542857316
H -0.7216729285 1.2044151787 -2.2532530778
H -0.7833247681 -0.3925303807 -3.0035413403
H 1.2427226231 0.6497695073 -1.3422123682
H -1.5381022173 1.6045022971 1.4148768106
H -0.9099731957 1.9665027072 -0.1970609924
H 0.5766970910 3.0232573586 1.3422245426
H 0.7204954580 1.5907366022 2.3637051095
H 1.8894325160 0.6027392418 0.7356504814
