110
CONF9
C -2.6817270082 -0.3391422357 -1.5119919490
N -3.5743866380 -0.8953540183 -2.5454296441
C -3.0819234579 -2.2521328632 -2.8697191420
C -2.2486324571 -2.6702512928 -1.6420668799
C -2.4778168244 -1.5557654715 -0.5914061745
C -1.3452964907 -1.4405287977 0.3921704408
C -0.0228082158 -1.1051172711 0.1798730322
C 0.8948269603 -1.0889169873 1.2356986274
C 0.4290100540 -1.4664211604 2.5139396236
O 1.3618953991 -1.4426940635 3.5121063681
C 0.9613210980 -1.8075108562 4.8375349328
C -0.8986832647 -1.8388486830 2.7441994421
C -1.7862519808 -1.7894499868 1.6673705098
N -3.1409144709 -2.0376651079 1.6844564201
C -3.7039856880 -2.9892876098 2.6299686247
C -3.7149521107 -1.8676836697 0.3414578066
C -4.8147189958 -0.7493855782 0.2896114815
O -5.6150848069 -0.9209022742 -0.8688474056
C -4.1237857057 0.6267624890 0.3646226193
O -5.0725707632 1.6799972252 0.5448830991
C -3.2499945616 0.9517489533 -0.8776589757
C -2.0281818176 1.8130511911 -0.4296778171
C -2.3261981574 3.0849569584 0.3594758539
C -3.9965151569 1.7380491785 -1.9314044900
C -4.1563347933 1.3499618348 -3.1966623331
C -3.7565163782 -0.0073931196 -3.6852227279
C -5.7514088114 -0.8925077687 1.5045540360
N -6.8114393811 -1.6952897068 1.3044518947
O -5.5210965839 -0.3262813236 2.5780775778
C 2.3164512192 -0.5340711930 1.0414076677
C 2.7706932158 -0.7438681200 -0.4338662021
C 4.2419850490 -0.4872060270 -0.7796091112
C 4.5997658343 1.0042338598 -0.7161391978
N 3.8535499260 1.6895334077 -1.7454487828
C 4.2952340130 1.3587576062 -3.0753008153
C 4.0374918867 -0.1384622203 -3.3713259301
O 4.8463929939 -0.5490638660 -4.5023610588
C 2.5559499454 -0.3415381300 -3.7308611939
C 2.0928285352 -1.7892124370 -3.8682523137
C 4.5798603167 -0.9846878392 -2.2027083489
C 2.9953502949 2.8054763837 -1.4364833284
C 1.7136386733 2.4101170645 -0.6594578301
C 1.9348731320 2.0974819200 0.7917206515
C 2.2539332098 0.9257688679 1.4722073477
N 2.3665307256 1.2193963871 2.8216878967
C 2.1604945882 2.5517052854 3.0428115464
C 2.1920436545 3.2901832288 4.2254478834
C 1.9377298449 4.6531626102 4.1329085272
C 1.6609141185 5.2599415368 2.8926802795
C 1.6345411220 4.5185492648 1.7188413666
C 1.8864313350 3.1388230799 1.7804037820
C 3.3493858067 -1.3295208362 1.8545107292
O 4.2501547614 -0.8615833380 2.5207541238
O 3.2025933482 -2.6454775637 1.6326164991
C 4.1587736819 -3.4988106224 2.3044575849
H -1.7009346700 -0.0905757000 -1.9613546592
H -2.4588060758 -2.2351727928 -3.7760042502
H -3.9332446632 -2.9163175494 -3.0569262810
H -1.1846731670 -2.6897220989 -1.8965489173
H -2.5175854773 -3.6541883847 -1.2504224606
H 0.2969737201 -0.8389749827 -0.8220003591
H 0.1825182921 -1.1327723045 5.2112198476
H 0.6027540794 -2.8426406413 4.8675001486
H 1.8578734221 -1.7110590168 5.4509807085
H -1.2388046571 -2.1278010612 3.7297830374
H -3.1924142912 -3.9632524412 2.5761461848
H -3.6277916181 -2.6089257719 3.6541530754
H -4.7623513280 -3.1404641086 2.4125799852
H -4.2103525203 -2.7938822880 0.0185100315
H -4.9627342474 -0.9498030625 -1.6419083197
H -3.4539651363 0.5792272807 1.2364124057
H -5.4075407475 1.5826255804 1.4477689168
H -1.3734648793 1.1717411936 0.1718157994
H -1.4666323408 2.0703574252 -1.3368773658
H -2.9610622968 3.7807270950 -0.1964312912
H -1.3836859643 3.5971115436 0.5830864533
H -2.8194965962 2.8662840337 1.3103916434
H -4.3432303663 2.7220437952 -1.6337293048
H -4.6143439371 2.0189933101 -3.9207077799
H -2.8342522976 0.0542375261 -4.2977561917
H -4.5380745617 -0.4194633702 -4.3374085635
H -7.0073093070 -2.0357109606 0.3757935185
H -7.4952770799 -1.8071802346 2.0369549678
H 2.1637726900 -0.1050374639 -1.0682646094
H 2.5261390428 -1.7799869247 -0.6838679324
H 4.8902608197 -1.0454871338 -0.0898778302
H 5.6904438164 1.1129151420 -0.8791511586
H 4.3694693009 1.4287282962 0.2633071902
H 3.7679100596 1.9730473327 -3.8160832437
H 5.3827250403 1.5357649752 -3.2025932397
H 4.4858968244 -0.1175267180 -5.2882467705
H 1.9334777271 0.1881936946 -3.0022620041
H 2.3953439666 0.1822442354 -4.6852345748
H 2.0783412599 -2.3044921054 -2.9036752532
H 2.7493472190 -2.3495998423 -4.5418497030
H 1.0781975303 -1.8265581765 -4.2776927927
H 5.6728557366 -0.9579094047 -2.3029102106
H 4.2778794180 -2.0302963205 -2.3310218025
H 3.5192382489 3.5877182995 -0.8550010528
H 2.6898910311 3.2647471667 -2.3838134215
H 1.2088409847 1.5999244265 -1.1926938339
H 1.0296884858 3.2678290201 -0.7042708958
H 2.6135628840 0.5415548496 3.5233184953
H 2.4055893269 2.8175782338 5.1794348541
H 1.9524308848 5.2606552663 5.0325441255
H 1.4668384198 6.3276310457 2.8570698999
H 1.4234606596 5.0033894063 0.7699475839
H 4.0769647098 -3.3712707209 3.3870629383
H 3.8914734745 -4.5146728475 2.0162178314
H 5.1744493671 -3.2601509980 1.9795801826
