51
CONF32
C -0.3200562683 -3.4507149961 -0.4819727144
N -0.7915728970 -2.9314688761 0.8067551526
C -2.2589878286 -3.0632966345 0.8516923985
C -2.8263765963 -2.6190987082 2.1918414478
C -2.4382296490 -1.1704893807 2.4647252777
C -0.9255500948 -1.0090877619 2.3488785586
C -0.3980946512 -1.5158340074 1.0031764949
C 1.1254257773 -1.3612611020 0.9062077991
C 1.6360574027 0.0524782347 1.2044390210
N 0.8745709169 1.0846495335 0.4916258782
C 0.6069469502 2.3092598885 1.1282381098
C 1.4150886305 2.8065426654 2.1581518215
C 1.0891613522 3.9999845318 2.7982659199
C -0.0202002195 4.7389230137 2.3993144727
C -0.8098953961 4.2767787113 1.3482553201
C -0.5100831044 3.0656154379 0.7329422755
S -1.5906672909 2.3941884873 -0.5138473388
C -0.3542011310 1.6207835567 -1.5320985394
C 0.7508854265 1.0180228867 -0.9053802685
C 1.6984733600 0.3678879860 -1.6963602898
C 1.5211790338 0.2603410729 -3.0817297690
C 0.4153512431 0.8528383634 -3.6933596053
C -0.5009149832 1.5538101474 -2.9109291054
S 2.7745121467 -0.6492490189 -3.9560521132
C 2.2618342248 -0.5111538092 -5.7007224488
H -0.5996405196 -2.7941055029 -1.3296771015
H -0.7671810862 -4.4346426688 -0.6545437129
H 0.7652009098 -3.5779647293 -0.4887517293
H -2.5085456836 -4.1144443464 0.6655092968
H -2.7290698513 -2.4663668307 0.0414277079
H -3.9157594317 -2.7401459694 2.1809767606
H -2.4298201780 -3.2666811452 2.9848186783
H -2.7825316647 -0.8499140752 3.4545189500
H -2.9256746189 -0.5191431992 1.7253868075
H -0.6605971379 0.0471212823 2.4637777470
H -0.4256925922 -1.5658865250 3.1541347747
H -0.8620048381 -0.9018718471 0.2013324934
H 1.4651760854 -1.6659715376 -0.0851206058
H 1.6021891770 -2.0372372749 1.6278872018
H 1.5172300631 0.2602293367 2.2696345797
H 2.7143050195 0.1101765450 0.9912068215
H 2.3034709607 2.2638830179 2.4603939781
H 1.7219984689 4.3581965273 3.6039750326
H -0.2691106552 5.6726092284 2.8922799040
H -1.6753350651 4.8432139120 1.0181865406
H 2.5817576442 -0.0613220894 -1.2364771827
H 0.2552637972 0.7888129993 -4.7619558701
H -1.3555967959 2.0289045911 -3.3827982839
H 3.0253733653 -1.0448697192 -6.2712455385
H 1.2920008742 -0.9864290474 -5.8661335972
H 2.2379361924 0.5333988454 -6.0208010004
