50
CONF25
C 7.2780904848 0.1393146524 -0.1781296822
C 6.3187094409 1.2820396878 0.0567837101
O 5.0308599904 0.8699010395 -0.4794959428
C 4.0301836802 1.7771944943 -0.3560131097
O 4.1743506618 2.8661036482 0.1920363846
N 2.8757575117 1.3519766708 -0.9471450412
C 1.6407219270 2.0779865113 -0.6587482201
C 0.8772343210 1.4123308080 0.5014151964
C 0.6468316803 -0.0460964352 0.2058465285
C -0.5716033993 -0.6219124722 0.1797377317
C -1.8265999052 0.0714457008 0.5742110045
C -2.9717572790 0.1386306583 -0.2443929651
C -3.0972521766 -0.4156626905 -1.6520147320
C -1.8784708884 -1.1097114954 -2.2712860690
C -1.4233989589 -2.2811883857 -1.4534903430
C -0.7688004270 -2.0393504573 -0.2359339820
N -0.3437585857 -3.0151693700 0.5794287550
C -0.5553591610 -4.2832346882 0.1963889403
C -1.1923074945 -4.6264543037 -0.9899806506
C -1.6321881813 -3.6050374486 -1.8265851547
C -4.1166938633 0.7780435807 0.2505401236
C -4.1284372846 1.3249991099 1.5212533498
C -3.0195468932 1.2531357910 2.3542678598
C -1.8866641700 0.6198560601 1.8665160849
Cl -5.5920379404 2.1213513457 2.1013635030
C 1.9037521111 -0.7813449871 -0.1794988991
C 2.6379604857 -0.0453938917 -1.3142997350
H 8.2625404443 0.4101270451 0.2143733285
H 7.3791384389 -0.0740588782 -1.2460812510
H 6.9399479033 -0.7663084689 0.3336122904
H 6.6387220603 2.1942256612 -0.4567557765
H 6.2027806939 1.5032670938 1.1223995291
H 1.8800980168 3.1140883766 -0.4176391641
H 1.0203357194 2.0621527244 -1.5634852374
H 1.4823761347 1.5163951369 1.4132722061
H -0.0614888855 1.9475105866 0.6591678752
H -3.3996895907 0.4078320644 -2.3105161723
H -3.9367507712 -1.1234908297 -1.6535851224
H -2.1522849720 -1.4422523712 -3.2771915294
H -1.0557310350 -0.3921535533 -2.3736406614
H -0.1981024443 -5.0571080480 0.8734237686
H -1.3374269006 -5.6692305340 -1.2516052603
H -2.1284399143 -3.8328183298 -2.7662722683
H -5.0008037657 0.8451194422 -0.3761183818
H -3.0406620365 1.6677959554 3.3554445482
H -1.0158235508 0.5327991919 2.5086545974
H 2.5772989579 -0.8288328664 0.6883424361
H 1.6944350022 -1.8058047792 -0.4939495584
H 3.5807649412 -0.5375485487 -1.5490724938
H 2.0140968850 -0.0501293144 -2.2171252217
