76
CONF200
C 3.2601840374 2.8486968448 -0.9567799647
C 3.3130841835 2.1547528793 0.4100052941
C 4.7374531704 1.6174827448 0.6787998346
C 5.2429538740 0.5124746236 -0.2836787996
C 4.8249461529 -0.8769726118 0.0965300561
O 5.3355585791 -1.3800786054 1.2505703023
N 4.0234549261 -1.5699750495 -0.6106676761
C 3.5571050538 -2.8536638291 -0.1176281907
C 2.2647504861 -3.2265670524 -0.8304192107
O 1.8708510739 -2.3537652461 -1.7692616001
O 1.6288755949 -4.2283726997 -0.5815351617
C 2.2507026384 1.0597544196 0.5766396248
C 2.2844783623 0.4087498727 1.9900438981
C 0.8472883834 -0.0859911796 2.2916775927
C 0.1136213336 0.1181960600 0.9663923359
C -1.4106095323 0.1053429061 0.9692561445
C -1.9635414969 -1.1750947105 1.6012588604
O -1.3013687164 -2.2983942229 0.9817524425
C -3.4852009519 -1.2577705737 1.4763919622
C -4.0289815503 -0.9996138690 0.0632297110
C -3.7864469428 -2.1968207359 -0.8754193475
C -4.3410477061 -1.9659971681 -2.2744281573
O -4.1272417464 -3.1134813982 -3.1194277650
C -3.7451173094 -0.6987135366 -2.8722831812
C -4.0375069234 0.4886559757 -1.9566544792
C -3.4947530029 0.3390143545 -0.5178649691
C -4.0720447145 1.5185934202 0.2852813625
C -1.9373530467 0.3170212243 -0.4692028984
C -1.2906707680 1.5519548365 -1.1161546596
C 0.2447727613 1.5589980282 -1.0679601444
O 0.7889395742 0.5688096299 -1.9624832388
C 0.7469074890 1.4047139624 0.3835149856
C 0.3804520177 2.6630747934 1.1846285632
H 2.3902034227 3.5046794818 -1.0355297443
H 3.2016034795 2.1241889756 -1.7755355321
H 4.1521973813 3.4666590281 -1.1097291086
H 3.1410234212 2.9199122635 1.1820362081
H 5.4305283541 2.4615664741 0.5916913924
H 4.8153918241 1.2703167231 1.7161235570
H 6.3404538627 0.5337649661 -0.2925959978
H 4.9054199138 0.7024184961 -1.3043173478
H 5.9090115242 -0.7259218039 1.6760953060
H 3.3484969991 -2.8597841171 0.9614407674
H 4.2780233336 -3.6628130027 -0.3043814127
H 2.5585185628 -1.6395732452 -1.7609604903
H 2.4660908884 0.2878981291 -0.1676447825
H 3.0041007479 -0.4138302339 2.0299277883
H 2.6090214058 1.1446327712 2.7354520371
H 0.3814667223 0.5137281003 3.0829128400
H 0.8245686504 -1.1294771102 2.6185490594
H 0.4382026958 -0.7038061858 0.3100254663
H -1.7632337619 0.9277866719 1.6053626418
H -1.7049504515 -1.1671979610 2.6728132533
H -1.7388086875 -3.1001209945 1.2933416248
H -3.9091767548 -0.5216755576 2.1705194611
H -3.8230700515 -2.2408869679 1.8330987890
H -5.1209595715 -0.8866766227 0.1513906588
H -2.7138905239 -2.4045339602 -0.9610211867
H -4.2505614708 -3.0910912804 -0.4400368175
H -5.4335296233 -1.8572916648 -2.2261541532
H -3.1725249020 -3.2555798608 -3.1693264742
H -2.6619696940 -0.8372260180 -3.0008774662
H -4.1699019385 -0.5226499180 -3.8675523187
H -5.1287887096 0.6020348997 -1.8815301525
H -3.6692138448 1.4184374896 -2.4024594752
H -3.7175522246 1.5544816334 1.3177880055
H -3.8219462914 2.4739385952 -0.1871238318
H -5.1647788653 1.4416373485 0.3123306174
H -1.6163018621 -0.5631714252 -1.0450384528
H -1.5794846189 1.6226011710 -2.1698423333
H -1.6544609488 2.4624483076 -0.6277357658
H 0.5900396547 2.5102301019 -1.4843363472
H 0.4522395313 -0.2982541428 -1.7016434609
H 0.8230838826 2.6380208547 2.1844190709
H 0.7593311463 3.5587107333 0.6797790407
H -0.6984096857 2.7864546955 1.3057678351
