19
CONF1
C -1.3363057316 0.2631666782 0.6943887788
N -0.7538539458 -1.0554127215 0.4301304844
C 0.6571640154 -1.2229889513 0.7423063712
N 1.4528777341 -0.1730707715 0.0896024314
C 0.9618056117 1.1739030364 0.4140946024
N -0.4574306882 1.2809383017 0.1121409475
N -0.8141486593 2.1108858618 -0.8878426516
O -1.9866399553 2.0817317034 -1.2111778929
N 1.7051290206 -0.3950755984 -1.2980529698
O 1.9726181183 0.5853377170 -1.9710153138
O 1.7011598614 -1.5533113175 -1.6777948469
N -1.3319552161 -2.0006949048 -0.3374256328
O -2.4686243317 -1.7675381548 -0.7028608414
H -2.3226381531 0.3253812105 0.2291467035
H -1.4054253275 0.4191523032 1.7774615544
H 0.8153154725 -1.0975236104 1.8188841374
H 0.9811406588 -2.2146354670 0.4291415018
H 1.5071780310 1.9360335337 -0.1409598773
H 1.1226328761 1.3037214476 1.4898326247
