47
CONF615
C 4.7761054793 -2.1635970969 -2.0923557197
C 3.6589855419 -1.5397714350 -1.3116057486
C 2.5678592555 -2.3331353603 -0.8488620965
C 2.5345815814 -3.7996950832 -1.1443594352
C 1.5290739008 -1.7582211536 -0.1311987957
C 1.5276640016 -0.3907725966 0.1673977722
N 0.5208317752 0.2280631329 0.8941975481
C -0.5977905506 -0.5625770587 1.4536366068
C -1.8175983038 -0.7109040798 0.5244519208
O -1.5005552547 -1.3952233979 -0.6849331565
C -2.5402094001 0.6122058251 0.2384761099
O -2.9958139612 1.2037361424 1.4544320471
C -3.7622487231 0.4490335686 -0.6713633580
O -4.3755646152 1.7340584072 -0.8621736059
C -4.8025392132 -0.5340356104 -0.1415351558
O -5.9483067816 -0.5603898089 -0.9989883603
C 0.5864648642 1.5725982199 1.1687443364
N -0.3830272124 2.1344351179 1.8722353476
C -0.3280183006 3.4708815646 2.1542700723
O -1.2125551680 4.0463131633 2.7853575882
N 0.7757370751 4.2104546704 1.7013902581
C 1.8313002437 3.7344668420 0.9624161519
O 2.7529444068 4.4494923085 0.5938929336
C 1.7339223315 2.2825469181 0.6669616136
N 2.6951569106 1.7321645050 -0.0252574953
C 2.6184319112 0.4069091974 -0.2866948508
C 3.6596879751 -0.1949554563 -1.0234101737
H 5.5228380423 -1.4156072270 -2.3645260505
H 4.4004778705 -2.6312634141 -3.0092475455
H 5.2682089384 -2.9521509749 -1.5123077964
H 3.4148107884 -4.2985832231 -0.7226228247
H 2.5625667304 -3.9782336807 -2.2253131276
H 1.6376965996 -4.2665638132 -0.7344649953
H 0.7066422696 -2.3908804976 0.1698666085
H -0.2143681537 -1.5520587065 1.7011987647
H -0.9053562292 -0.0841883450 2.3845478604
H -2.5003365482 -1.3689070669 1.0757470825
H -1.0450703956 -0.7831914836 -1.2805888825
H -1.8461753242 1.2953595699 -0.2811283144
H -2.2077944082 1.6457583035 1.8371220652
H -3.4357724944 0.1221839861 -1.6637619601
H -4.4311928353 2.1353635562 0.0191406416
H -5.0897716592 -0.2601977344 0.8847288007
H -4.3977442519 -1.5506284081 -0.1321457567
H -6.1944952351 0.3649713896 -1.1409356104
H 0.7799930621 5.1975042051 1.9328839689
H 4.4703240671 0.4472324998 -1.3533145793
