55
CONF183
C 6.0796219461 -2.6991675690 -2.0432879879
O 5.1881658427 -1.5900959200 -2.2195198715
C 3.9858268426 -1.6420050148 -1.5832821653
C 3.5627130957 -2.6995294767 -0.7750933228
C 2.3037888053 -2.6392060668 -0.1803203187
C 1.4575610462 -1.5466616738 -0.3649653757
C 1.8970135582 -0.4981676516 -1.1843868183
C 3.1422836036 -0.5419086447 -1.7867024393
C 0.1333469275 -1.5236548061 0.3487130586
S -1.2058150491 -1.1002817184 -0.8695506102
C -2.5264905244 -0.5518798654 0.1955928810
C -3.7200562125 -1.2779113061 0.2180541811
C -4.8143353782 -0.8236193489 0.9452591550
C -4.7099741637 0.3513877865 1.6850468924
C -3.5222044237 1.0721400131 1.6869775530
C -2.4272519974 0.6436249088 0.9322258070
N -1.2438586717 1.4301596070 0.9217182633
C -1.3372094747 2.8610082825 0.5751775819
C -1.1027079743 3.1086886676 -0.9121902147
N -2.1419683071 2.5309903351 -1.7649749994
C -3.3850959522 3.2991693457 -1.6993551463
C -1.6741674187 2.4544002554 -3.1494667239
C 0.0052385302 0.9212655030 1.1474517159
O 1.0188233396 1.6104780366 1.0776085863
C 0.0659472400 -0.5532148207 1.5500677233
O 1.2568630631 -0.7002443701 2.3467099896
C 1.2932510248 -1.7562281127 3.1993600295
C 2.6113991722 -1.8120621223 3.9066045495
O 0.3770405441 -2.5387512700 3.3370646941
H 6.9681361888 -2.4593190848 -2.6276908208
H 5.6311041565 -3.6267768835 -2.4177541353
H 6.3533851435 -2.8192653089 -0.9884894529
H 4.1887090068 -3.5667790695 -0.6060564453
H 1.9791101042 -3.4665160010 0.4457030524
H 1.2558334170 0.3602212289 -1.3552933978
H 3.4815460194 0.2692415112 -2.4229146658
H -0.0716178740 -2.5236356857 0.7412165950
H -3.7839197436 -2.1997897027 -0.3503736353
H -5.7379885162 -1.3927789820 0.9442180652
H -5.5494193903 0.7034638644 2.2756560621
H -3.4373924686 1.9745902409 2.2832302515
H -0.5818095713 3.4005092392 1.1512296324
H -2.3183921222 3.2223612490 0.8859049434
H -1.0049584513 4.2028540675 -1.0666687251
H -0.1419240754 2.6574040304 -1.1841220956
H -4.1366741836 2.8315249917 -2.3434433984
H -3.2499634362 4.3478582938 -2.0289414202
H -3.7829347679 3.3093344276 -0.6798658088
H -1.4389629678 3.4492097089 -3.5754718315
H -0.7717100821 1.8359145662 -3.2014843761
H -2.4458179136 1.9919546601 -3.7737757123
H -0.8020692279 -0.8149795262 2.1620044420
H 2.8734976875 -0.8299907701 4.3073566834
H 2.5712108784 -2.5548121242 4.7021061002
H 3.3852713777 -2.0905206227 3.1831830450
