47
CONF110
C -2.8279822676 3.3764558409 0.3696981192
C -2.1997165597 2.2468770514 1.1543270535
C -2.1985633284 2.2819794070 2.6652066678
C -0.9106248698 2.5945400134 1.9038426886
C 0.1927383737 1.6258450178 1.9678551922
O 0.1400447505 0.4748723424 2.3437103601
O 1.3448487226 2.2013838861 1.4998531223
C 2.4664286855 1.2856356846 1.3767157509
C 3.6603167810 2.1298892829 1.3799986851
N 4.6220268559 2.7687679464 1.3728719245
C 2.3654639845 0.4688566829 0.1065285416
C 2.2872435201 -0.9166769016 0.1907580145
C 2.1562168862 -1.6612830247 -0.9790080730
C 2.1026979219 -1.0358273599 -2.2230663582
C 2.1771391312 0.3530012763 -2.2867732775
C 2.3110939653 1.1130590425 -1.1305958621
O 2.1469632514 -3.0310422757 -0.8321238870
C 1.4494018570 -3.8006596503 -1.7548626685
C 0.1249568860 -3.5152002789 -2.0763171335
C -0.5518196770 -4.3602155517 -2.9504434948
C 0.0833698346 -5.4793789654 -3.4876616836
C 1.4054421455 -5.7537275584 -3.1459554052
C 2.0984386383 -4.9121252803 -2.2786919323
C -2.8406583076 3.3559275316 3.4262827838
C -3.5120137126 3.1946868293 4.5669866738
Cl -4.2537729528 4.5326199660 5.4067989867
Cl -3.7417887186 1.6594368863 5.3578659386
C -2.3432331864 0.8956904074 0.4926166011
H -3.9124066966 3.2310724736 0.3129291869
H -2.4320377405 3.3777739508 -0.6509771088
H -2.6322694303 4.3567461050 0.8083663875
H -2.1974576732 1.3017078608 3.1317882328
H -0.6073153298 3.6339502319 1.8382317318
H 2.5050122114 0.6279300068 2.2524182437
H 2.3148903909 -1.4243171356 1.1491501392
H 2.0079057900 -1.6252956376 -3.1282877237
H 2.1409944477 0.8427601059 -3.2543969185
H 2.3704385271 2.1954216934 -1.1877690048
H -0.3650935245 -2.6473106794 -1.6469303761
H -1.5851279762 -4.1458765866 -3.2047088656
H -0.4516317797 -6.1352415210 -4.1664862872
H 1.9063953037 -6.6237507799 -3.5585898455
H 3.1298224733 -5.1072815987 -2.0043911736
H -2.7741426183 4.3710504141 3.0470941419
H -1.8328666365 0.8939877995 -0.4773595780
H -3.4050227729 0.6936624061 0.3167935313
H -1.9347440734 0.0896233515 1.1037546316
