49
CONF13
C -0.4701187008 -2.7796820094 -3.9452653146
C -1.2864833983 -2.0418227919 -2.9073346887
O -0.3771701580 -1.2513357721 -2.1342405811
C -0.8854784177 -0.4834633942 -1.1183632793
C -2.2305347614 -0.4325817538 -0.7737784109
C -2.6710682529 0.3775269688 0.2843967145
C -1.7215117326 1.1244988763 0.9755275088
C -0.3713146813 1.0684196594 0.6251409645
C 0.0695155194 0.2712633864 -0.4176445293
C 1.5163208966 0.1731392763 -0.8318529766
C 2.1113479551 -1.2553270232 -0.6589839981
O 3.3447910525 -1.0327796535 0.0828484962
C 3.3343163889 0.2913016916 0.4049939340
N 2.3958319679 1.0342092355 -0.0257248528
C 4.4603277372 0.7401191563 1.2374141203
C 4.8369514153 0.0624805125 2.3994586398
C 5.8865411346 0.4676125126 3.2050941818
C 6.6041034556 1.6009225629 2.8386770122
C 6.2740082571 2.3133154914 1.6915264011
C 5.2131853988 1.8727681774 0.9176307575
F 4.9185876122 2.5510913208 -0.2003610911
F 4.1249784202 -1.0143206334 2.7727135945
C -4.1616101735 0.3951597147 0.6338476250
C -4.6012405799 -1.0194150771 1.0575517578
C -4.9758581892 0.8377949093 -0.5963369848
C -4.4756821525 1.3585270466 1.7848052532
H 0.0583585476 -2.0748553877 -4.5926642815
H -1.1266843013 -3.3964670923 -4.5654351072
H 0.2649001803 -3.4310813743 -3.4647025234
H -1.8156167027 -2.7463814659 -2.2492103068
H -2.0315907851 -1.3868100159 -3.3816633428
H -2.9501848482 -1.0233558684 -1.3260943246
H -2.0147010364 1.7652610413 1.7973521919
H 0.3585517696 1.6603552717 1.1661816246
H 1.5964236054 0.4883324382 -1.8823090367
H 2.3654432022 -1.7407953816 -1.6023822842
H 1.4678259050 -1.9081389496 -0.0613729449
H 6.1189356712 -0.0967602078 4.0999605923
H 7.4305101637 1.9345552708 3.4565862668
H 6.8231671231 3.1950566229 1.3843344874
H -5.6636076193 -1.0213308016 1.3257957878
H -4.0248460792 -1.3574148294 1.9245293110
H -4.4561928702 -1.7461213529 0.2528297579
H -4.6689139380 1.8360976067 -0.9239304156
H -6.0433501901 0.8667211380 -0.3515156920
H -4.8445204217 0.1523470717 -1.4384843882
H -5.5507149911 1.3417539603 1.9897155819
H -3.9569462643 1.0717855261 2.7050061150
H -4.1989820226 2.3878255061 1.5354022723
