74
CONF71
C -0.8489486338 -1.7605502164 -0.8285089793
C -0.4660726029 -3.1658301738 -1.2817917892
O -1.4724412289 -4.0271279705 -0.6736630985
C -2.0664854763 -3.4065944631 0.3892774535
O -2.8760431138 -3.9654148918 1.0807568942
C -1.4633940594 -2.0255468913 0.5350221690
C -2.3203859863 -0.8426510474 0.9910413737
C -3.6204996181 -0.7131416928 0.2015006189
C -4.6976398494 -1.5303388097 0.5458658072
C -5.8657283227 -1.4780280162 -0.2060888890
O -6.9809019986 -2.2446359492 0.0157785770
C -6.8758931179 -3.2726514335 1.0021891934
C -5.9926007344 -0.6012716359 -1.2888731319
O -7.1376854561 -0.5422824719 -2.0220383164
C -4.9185515638 0.2321929030 -1.6164304669
O -5.1287514464 1.0642422227 -2.6758837427
C -4.0631420490 1.9316353891 -3.0402479707
C -3.7371594955 0.1687054525 -0.8746147161
C -1.4710676763 0.4172336762 0.8768257281
C -1.9342521886 1.5566922079 1.5633245383
C -1.2627292081 2.7392042297 1.3802220933
C -0.1711538573 2.8361491893 0.5253690692
O 0.2952294818 4.1248320298 0.5027188630
C -0.5370251858 4.8622085746 1.4165878728
O -1.5326707403 3.9606002387 1.9349165129
C 0.2984852642 1.7480225524 -0.1640102628
C -0.3535014233 0.5087146207 0.0307082914
C 0.2194909734 -0.6964512197 -0.6926588463
O 1.3110516210 -1.3277139364 0.0446427138
C 2.3737107055 -0.5124417798 0.4159471641
O 3.0065197505 -0.0064744139 -0.7639034623
C 4.0962951731 0.8375096925 -0.4005051287
C 4.7078890187 1.4552849443 -1.6472695641
O 5.8368640033 2.2357391904 -1.2596463392
C 6.8019979015 1.4619900393 -0.5562461447
C 7.9381204153 2.3710651157 -0.1706961802
O 6.2597547440 0.9015644677 0.6310231753
C 5.1794518816 0.0294214624 0.3177654981
C 4.6122209684 -0.5929630610 1.5749271973
O 5.5850602069 -1.4477120025 2.1541295386
C 3.3540733963 -1.3796408948 1.2035018222
O 2.7840516637 -1.8246703875 2.4317085511
H -1.6329212209 -1.3698747469 -1.4902555278
H -0.5202039983 -3.3180276316 -2.3616336615
H 0.5183382726 -3.4676193085 -0.9111530611
H -0.6459316768 -2.1503525631 1.2632168218
H -2.5855569762 -0.9911721441 2.0449924290
H -4.5989425265 -2.2212083821 1.3722439908
H -7.8155394815 -3.8246549217 0.9588897681
H -6.0365627740 -3.9430373886 0.7821536893
H -6.7501755023 -2.8436128240 2.0040001426
H -7.7428655981 -1.1969760183 -1.6465517285
H -3.1692192789 1.3671504318 -3.3392304216
H -4.4280489003 2.5078964902 -3.8916437236
H -3.8030019831 2.6153695966 -2.2207158868
H -2.9095038195 0.8224221844 -1.1177209522
H -2.8168639378 1.5008689855 2.1914373037
H 0.0771198045 5.2391602842 2.2442705892
H -1.0338403781 5.6780440875 0.8779331701
H 1.1465407943 1.8237453599 -0.8366823959
H 0.6155653945 -0.3876135526 -1.6679112512
H 2.0323925681 0.3357459491 1.0377296462
H 3.7543646811 1.6457284517 0.2692981074
H 4.0076906712 2.1288229455 -2.1491341287
H 4.9998762379 0.6556119250 -2.3489729076
H 7.1324829717 0.6331352076 -1.2139565600
H 8.6965606235 1.8020807239 0.3705681153
H 7.5603619471 3.1694612475 0.4724696500
H 8.3820879298 2.8103384212 -1.0662915803
H 5.5286188675 -0.7773961678 -0.3524011126
H 4.3323249183 0.2123779473 2.2762687966
H 5.1536165804 -1.9009088886 2.8894723427
H 3.6427185650 -2.2314241462 0.5669538760
H 2.0429744218 -2.4029552994 2.2171555802
