45
CONF209
C 5.8085242023 -3.4710195368 -3.1255658128
C 5.3586053275 -2.4216040347 -2.4205001478
C 3.9618286403 -2.0991668853 -2.1977574518
C 3.5363526189 -0.9158608877 -1.6547635762
N 2.1844179624 -0.8518593047 -1.2923053300
C 1.4099107634 -1.8709328989 -0.5587231597
C 0.1204592995 -1.2455048687 -1.1954196469
C 1.0799119808 -0.1773656042 -1.7818902526
O 0.9673788451 0.8169445483 -2.4573416697
N -0.9657045353 -0.8358418724 -0.3644902399
C -0.8186706004 0.1588250250 0.5444107317
O 0.2594665538 0.7109288143 0.7552386511
C -2.0712991867 0.5542595075 1.2897132276
N -3.1746989850 0.1149743961 0.7781600164
O -4.2734043644 0.3460202373 1.6015031242
C -5.4637864877 0.4844467170 0.8281827863
C -5.7575099466 1.9330302657 0.4545606599
O -6.6824827063 2.1914220559 -0.2901268219
O -5.0002507732 2.8845714367 0.9854501595
C -1.9504342309 1.4292509525 2.4533748377
C -0.9275497122 1.3971342952 3.3551243489
S -1.1527253450 2.6237038254 4.5636290159
C -2.6329635653 3.1265861400 3.7259051108
N -2.9073284750 2.4103770683 2.6653184349
N -3.4095162614 4.1254519703 4.2042980493
S 1.9470524092 -3.5659183054 -0.9762928720
C 2.8847274565 -3.1002534421 -2.5091559401
C 4.3783876445 0.2665191938 -1.3788419976
O 5.5006263478 0.4521125231 -1.8119590637
O 3.7358173398 1.1587424818 -0.5940360035
H 5.1578896366 -4.1794393436 -3.6273181041
H 6.8760792483 -3.6316648798 -3.2322580704
H 6.0794157470 -1.7380098815 -1.9871298889
H 1.4587511031 -1.7476192730 0.5276333768
H -0.2588948727 -1.8778189698 -2.0024509370
H -1.8797670109 -1.2446359169 -0.4975822469
H -5.4167037793 -0.1186619001 -0.0841789892
H -6.2870073812 0.1275992678 1.4557283441
H -4.2689237082 2.5638274165 1.6099684056
H -0.0694883131 0.7421972259 3.3763092235
H -3.0036051307 4.7941704120 4.8395978318
H -4.1165935716 4.4872853137 3.5800535418
H 3.2832648555 -4.0385247477 -2.8919873002
H 2.1774626467 -2.6939488005 -3.2397674258
H 4.3229797955 1.9252708669 -0.4814562252
