65
CONF298
C -3.8050394682 1.8918609356 -3.0698913512
C -3.4396285869 0.4258613506 -3.2916031465
C -2.9460425948 -0.2689221729 -2.0151119242
C -2.6235633296 -1.7489744428 -2.2658081927
C -1.6968144175 0.4170886913 -1.5061395785
O -0.6896967149 0.5814072182 -2.1708169131
O -1.8184094822 0.8019141414 -0.2207768700
C -0.6591080682 1.4507037106 0.3945610269
C -0.6940307122 2.9413709756 0.1043724797
C 0.5631420090 3.6171305842 0.6709725921
C 0.8602740044 3.1121234173 2.0512449331
C 0.2980097244 2.0236495036 2.6119819077
C -0.7345816602 1.1754214975 1.8880970546
C -0.5618376030 -0.3147569399 2.2615715590
C -0.7654432706 -0.4525759618 3.7850020628
C 0.1567865037 0.4816724287 4.5190751074
C 0.6468072306 1.6004482620 3.9592077251
C -0.6458668859 -1.8926301460 4.2911036102
C 0.7890325325 -0.8668503271 1.7538822893
C 0.6189974171 -1.7543463814 0.5187804909
C 1.9036478107 -2.0463119105 -0.2263014348
C 1.7127520570 -3.0417957209 -1.3681260870
C 2.7757012714 -2.8943096179 -2.4691800397
C 3.9714539592 -2.1037351667 -1.9441027185
C 3.4853660774 -0.7484319580 -1.5060782651
O 3.9816238925 0.3127837810 -1.8299560647
O 2.3801339447 -0.7480750510 -0.7358096185
O 2.2823707454 -2.1290328890 -3.5843097351
C 1.7840283505 3.4384826730 -0.2501515364
H -4.5810658691 1.9900030086 -2.3030536696
H -2.9348628669 2.4732234580 -2.7434735180
H -4.1801770519 2.3466146294 -3.9914650242
H -4.3131599176 -0.1282303718 -3.6545589884
H -2.6626323277 0.3397304516 -4.0606169198
H -3.7175821153 -0.1914967815 -1.2415370633
H -3.5201097055 -2.2652910156 -2.6211749362
H -1.8419236131 -1.8451794195 -3.0259999839
H -2.2803173670 -2.2435640974 -1.3515540518
H 0.2416341753 1.0042861921 -0.0354783621
H -0.7608666175 3.1111264067 -0.9752526440
H -1.5918660782 3.3660484878 0.5701385537
H 0.3671682926 4.6964881359 0.7396826338
H 1.5994756948 3.6699131491 2.6265733472
H -1.7320445454 1.4886316320 2.2353152445
H -1.3708091255 -0.8777309246 1.7781775334
H -1.8004626174 -0.1316971213 3.9886121254
H 0.4303730612 0.2248656593 5.5411351659
H 1.3303062346 2.2382329508 4.5168155009
H 0.3774202002 -2.2707716530 4.2061583069
H -0.9315656180 -1.9470929849 5.3465939287
H -1.3057872546 -2.5571465688 3.7235326709
H 1.4608016249 -0.0332606956 1.5175748899
H 1.2947563165 -1.4438931780 2.5343333619
H 0.1725846817 -2.7140301359 0.8090284761
H -0.0759428065 -1.2969656252 -0.1955420477
H 2.6759413053 -2.4059108660 0.4661070594
H 0.7188511571 -2.9126170215 -1.8124174425
H 1.7509893440 -4.0482922832 -0.9391061557
H 3.1099698381 -3.8796649298 -2.8164529876
H 4.7375132611 -1.9752619971 -2.7099776814
H 4.4128587967 -2.6320582704 -1.0903929284
H 1.5157274829 -2.5927099382 -3.9448488862
H 2.6691803160 3.9160236347 0.1820350757
H 1.5926490896 3.8890659654 -1.2296455170
H 2.0129089782 2.3774406119 -0.3949546410
