24
CONF5
O -0.9410152190 0.1890651103 -2.0184655781
C -1.8095679015 0.0496900606 -0.9877752866
C -1.4537974807 0.6264354246 0.2395193094
O -0.2823087425 1.3655533361 0.3330883196
C 0.9075867905 0.6875177154 0.3110252152
C 1.0164392605 -0.6864233975 0.5104382505
C 2.2603376455 -1.3064530866 0.5019206351
C 3.3975852180 -0.5370453920 0.2967894504
Cl 4.9764715279 -1.3099248743 0.2834793639
C 3.3220075728 0.8363426148 0.1004250315
C 2.0707660731 1.4375603825 0.1067380738
Cl 1.9497238831 3.1635432953 -0.1441856526
C -2.2935629521 0.5412269799 1.3361890810
C -3.5120286644 -0.1270372759 1.2410039135
C -3.8477671334 -0.7040882879 0.0236773745
Cl -5.3787607116 -1.5599299360 -0.1234970581
C -3.0223817912 -0.6309695885 -1.0918731807
H 0.1211451792 -1.2759979521 0.6757204814
H 2.3359245547 -2.3762395145 0.6572034477
H 4.2128757903 1.4313317532 -0.0601396002
H -4.1750411346 -0.1968314109 2.0944387778
H -3.3116414308 -1.0842443767 -2.0344985207
H -1.2913295894 -0.2504938857 -2.8060155901
H -1.9873787629 1.0034431832 2.2687772665
