50
CONF27
C 4.1880194765 -3.3167186592 -0.4518351170
C 2.9081549384 -2.9177703666 0.2267303749
O 2.6243334948 -3.1246494876 1.3813741460
O 2.0907728796 -2.2710246672 -0.6473104247
C 0.8542071281 -1.7686668494 -0.0942619173
C -0.1822656373 -2.8585883154 0.0554311950
C -1.4435211910 -2.5211308275 0.3423049177
C -1.6972055817 -1.0549044738 0.5101990217
C -3.1210629621 -0.5187783125 0.7107092607
C -3.0779732264 1.0182716969 1.0658537804
C -1.8384102308 1.7545433553 0.5962673472
C -0.9519712519 1.0950743228 -0.2336996851
C -1.1123187770 -0.3046036038 -0.7097131239
C 0.3410918705 -0.6971993982 -1.0564734933
O 1.1425579808 0.5325949541 -0.9905841256
C 0.3620131344 1.4903185963 -0.4124806875
C 0.7792000329 2.7115983022 0.0907785428
C -0.1389164982 3.4738086740 0.8123025088
C -1.4204727881 2.9985853837 1.0910882053
O 2.0830957100 3.1695664152 -0.0908234010
C 3.0713713069 2.4667042719 0.5689609366
O 2.8494241950 1.5783049202 1.3460665658
C 4.4190739227 2.9760242714 0.1531458427
C -2.0208514431 -0.4882984427 -1.9360664916
C -3.4710768107 -0.1335131654 -1.6510217182
N -3.9333171236 -0.8524237052 -0.4655040393
C -5.3608772988 -0.6663388294 -0.2478154616
H 4.7327593344 -2.4177047927 -0.7545808623
H 4.7944946246 -3.9043816218 0.2355959616
H 3.9743669645 -3.8899225236 -1.3578388798
H 1.0721664199 -1.3018402764 0.8776958466
H 0.1436534063 -3.8859745691 -0.0679076029
H -2.2363648593 -3.2550804954 0.4502635260
H -1.1174166497 -0.7252147934 1.3867104330
H -3.5752285216 -1.0405510141 1.5623844930
H -3.1298683215 1.1262892973 2.1558078863
H -3.9882379174 1.4944581853 0.6812592005
H 0.4351584988 -1.0687498358 -2.0809088922
H 0.1939238126 4.4252782388 1.2139682938
H -2.0713077786 3.5781864169 1.7389047546
H 4.6242482939 2.6322083750 -0.8656992694
H 5.1781302372 2.5837662250 0.8284330604
H 4.4355085627 4.0680597760 0.1414232328
H -1.6371244225 0.1254232497 -2.7593045147
H -1.9641979476 -1.5403775749 -2.2416419355
H -3.5807722516 0.9644917237 -1.5426498833
H -4.0959655520 -0.4299318137 -2.5019601900
H -5.6767036311 -1.2249127940 0.6397942569
H -5.6639279954 0.3901954809 -0.1149445464
H -5.9119532450 -1.0591037786 -1.1092870713
