46
CONF30
C -2.0463616401 3.2194389308 -0.3906299340
C -2.0146078618 1.7306244583 -0.0879031127
C -2.3488403122 0.8993487863 -1.3279154852
O -1.7531010963 0.8485941878 -2.3782768373
N -3.4916645008 0.1929697230 -0.9933729015
C -3.9576020892 0.5126277345 0.2885657169
O -4.9289357949 0.0697102974 0.8412188243
O -3.1247554248 1.4281941077 0.8226565142
N -4.1135375966 -0.7471380742 -1.7866203230
C -3.4049080266 -1.9514157635 -2.0103454251
C -3.7253299136 -2.7030603783 -3.1455671169
C -3.1017526254 -3.9257437999 -3.3619591882
C -2.1533512337 -4.4096997470 -2.4612562222
C -1.8392017535 -3.6539735648 -1.3349675819
C -2.4597680129 -2.4296063924 -1.0998624282
C -0.7174081330 1.2236728778 0.5126090342
C -0.7127650467 0.3526441416 1.6040571684
C 0.4843647866 -0.1336519621 2.1147967596
C 1.6876711907 0.2358181370 1.5214564382
C 1.7010880608 1.0855657905 0.4164468868
C 0.4996664389 1.5752765505 -0.0790109053
O 2.8301386423 -0.3368201524 2.0363309050
C 4.0338007237 0.3496246783 1.9479167910
C 5.1470691024 -0.3730329846 1.5348700646
C 6.3908044851 0.2538698976 1.5107014568
C 6.5143996571 1.5890552181 1.8886422941
C 5.3867410284 2.2974471408 2.3020788823
C 4.1390707836 1.6820145597 2.3397234601
H -1.8420053035 3.7796768620 0.5246662452
H -1.2892392168 3.4646085966 -1.1374692889
H -3.0278484440 3.4972687294 -0.7835179190
H -4.5003823676 -0.3243435261 -2.6239385000
H -4.4594600058 -2.3270869610 -3.8526088891
H -3.3559722347 -4.5002972198 -4.2473414433
H -1.6655135356 -5.3625447313 -2.6369837997
H -1.1031321943 -4.0156932444 -0.6236456686
H -2.2039696409 -1.8593000942 -0.2126052761
H -1.6428712765 0.0586450588 2.0761444132
H 0.4931414993 -0.8001239727 2.9706727208
H 2.6373404924 1.3611634044 -0.0559076767
H 0.5236109888 2.2265214931 -0.9455692419
H 5.0314358515 -1.4109828397 1.2406217350
H 7.2638165818 -0.3055044100 1.1894019534
H 7.4840990410 2.0752167238 1.8647165558
H 5.4767323915 3.3353385272 2.6072019332
H 3.2592913450 2.2250835231 2.6693787148
