43
CONF11
C 1.7333257173 2.1303371443 -1.5877453964
C 0.5049881003 2.5406482905 -0.8489600884
N -0.0905872531 3.6732269522 -1.1870843976
N -1.1662239081 3.7887168382 -0.3530931262
C -1.2422206358 2.7770062643 0.5192255239
C -0.1622418934 1.9097002828 0.2554902800
C 0.2368864961 0.7539581698 1.0187843726
O -0.1506325230 0.5119557260 2.1646337822
C 1.2161198567 -0.2084602705 0.4033024026
C 0.9128145319 -0.9933668368 -0.7079509720
C 1.8148331279 -1.9197776281 -1.2194834380
C 3.0508436894 -2.0457200176 -0.5987246603
C 3.3845732332 -1.2967060181 0.5245332060
C 2.4528207646 -0.3971998256 1.0220568298
Cl 4.2051158467 -3.1924872078 -1.2426160136
Cl -0.6579939342 -0.8660080313 -1.4751612537
O -2.2531610659 2.7786144362 1.4017277319
C -2.8830210133 1.5148256189 1.6352455923
C -3.4866506981 0.9507697058 0.3534360755
O -3.5495686920 1.6382201713 -0.6502433967
C -4.0021242518 -0.4431564757 0.3864582402
C -4.7209952143 -0.9025174003 -0.7244741425
C -5.2136571086 -2.1975624379 -0.7520859814
C -4.9919168747 -3.0509707691 0.3283358773
C -4.2761587464 -2.6044966304 1.4349157848
C -3.7817029451 -1.3058548517 1.4672385785
C -2.1448314560 4.8440227423 -0.5279956918
H 2.5601861229 1.9026771037 -0.9090376368
H 1.5534089580 1.2371091177 -2.1943559210
H 2.0304512880 2.9454010442 -2.2504694199
H 1.5562860383 -2.5295730513 -2.0758983613
H 4.3491624286 -1.4236056948 1.0007038002
H 2.6804575624 0.1841151664 1.9098795828
H -3.6871849796 1.7136489447 2.3524635058
H -4.8764444214 -0.2222615803 -1.5547573049
H -5.7703252690 -2.5478898471 -1.6151826156
H -5.3743233303 -4.0664353715 0.3047653765
H -4.0951351987 -3.2711577461 2.2714492765
H -3.2094841936 -0.9822974946 2.3294389137
H -3.1423482652 4.3986339235 -0.5787867472
H -2.1046133384 5.5570592075 0.3015343018
H -1.9105049238 5.3538796257 -1.4622648154
H -2.1646975164 0.8276491718 2.0940834060
