34
CONF189
C -2.5255336206 -3.0862759304 -0.7493370478
C -2.3627010053 -1.6680006867 -0.2676259362
O -2.1170661528 -0.8290010363 -1.4632495733
P -1.5946786483 0.6633876623 -1.3312022292
S -1.6107674787 1.6516925465 -2.9920543202
O -2.3092810805 1.2882666279 -0.0549537949
C -3.0562502485 2.5565004591 -0.0553563596
C -2.1593913635 3.6933604129 0.3669755992
O -0.0800435491 0.3023344745 -0.7190516442
N 0.6204935704 1.4448408793 -0.3496277833
C 1.7777232173 1.1638235690 0.1596673978
C 2.4674034495 2.3558372399 0.5699911978
N 3.0535124967 3.2956229414 0.9034827409
C 2.4491700146 -0.1254558439 0.3939512256
C 3.2804174559 -0.2452036152 1.5180747791
C 3.9311610270 -1.4430065238 1.7811611180
C 3.7814826983 -2.5223849476 0.9133603988
C 2.9777355241 -2.3995810521 -0.2186938479
C 2.3060771961 -1.2127637770 -0.4815935006
H -3.3613263080 -3.1666639372 -1.4494956640
H -1.6127317258 -3.4400239821 -1.2360919925
H -2.7315990090 -3.7289493351 0.1119423750
H -3.2665435013 -1.2888431451 0.2163403104
H -1.5120809038 -1.5656225258 0.4128194571
H -3.8663131229 2.3858254280 0.6566004580
H -3.4781520703 2.7133605232 -1.0517522555
H -1.3600813539 3.8530905892 -0.3618408615
H -1.7151235711 3.4957467303 1.3465210879
H -2.7572375330 4.6080140421 0.4344135657
H 3.4037802602 0.5953522635 2.1940618363
H 4.5602205472 -1.5307368325 2.6606796490
H 4.2967681587 -3.4561370242 1.1142112597
H 2.8735168089 -3.2335058031 -0.9050197721
H 1.6974396309 -1.1248996873 -1.3713962879
