35
CONF4
C -2.8153749878 1.7000496719 0.1898750971
C -1.4943296656 1.0738653508 -0.2609552017
C -0.5769691016 0.8958356131 0.9589257224
N 0.7842838609 0.4883596401 0.5970370180
C 1.4808789668 -0.1250559722 1.7217304912
C 2.8417651555 -0.6430755873 1.3214224819
O 3.3900450105 -1.5775140715 1.8803287408
N 3.4622960433 0.0415864642 0.2913240125
C 2.9479314408 1.1406471086 -0.3738135050
O 3.5927873601 1.7172948982 -1.2325243132
C 1.5758343835 1.5925249612 0.0676425779
N -1.7415036601 -0.1425846416 -1.0610433343
C -0.6423695009 -0.5969991318 -1.8993958382
C 0.3545534151 -1.5347954692 -1.2459988844
O 1.4888486207 -1.7124404309 -1.6596503073
N -0.1470114170 -2.3023331435 -0.1984807565
C -1.4246374914 -2.2289583491 0.3251634501
O -1.7675061244 -2.9426538039 1.2556971786
C -2.3668415529 -1.2642702936 -0.3776908621
H -3.2865629029 1.1291925508 0.9967240223
H -3.5121383314 1.7588596753 -0.6501170042
H -2.6351748148 2.7107323159 0.5664809236
H -1.0243134582 1.7767719968 -0.9599670955
H -1.0034367301 0.1197053978 1.6083364740
H -0.5721806189 1.8303898645 1.5508510305
H 1.6356055092 0.5777478906 2.5670232593
H 0.9090932106 -0.9754836841 2.1033445337
H 4.3795117376 -0.2856160003 0.0041311304
H 1.7245262846 2.4031955988 0.8121396592
H 1.0955347569 2.0383756617 -0.8062334018
H -0.0849984048 0.2512525783 -2.3046131248
H -1.0494824911 -1.1577644138 -2.7587715881
H 0.4961917060 -2.9546700923 0.2411057180
H -2.9162963003 -1.8763660805 -1.1122757481
H -3.0985590877 -0.9258063695 0.3583417412
