52
CONF9
C -1.5087543287 -3.5638905596 0.5964115187
C -1.2543602893 -2.2659166361 1.3076693873
C -1.4759864214 -1.0470087080 0.7882577004
C -1.9543163878 -0.7700753394 -0.5786923551
C -1.8281056820 0.6348943809 -1.2168482591
C -3.1912568465 0.0352929203 -0.8776682686
C -4.0217721203 0.5899068078 0.2555902003
C -4.0104019652 -0.3883833424 -2.0781206401
C -1.2520307082 1.7699486539 -0.4805956398
O -1.3809630715 2.0380791800 0.6993941499
O -0.5070553042 2.5397962353 -1.3255063457
C 0.1884158144 3.6495801523 -0.7034169049
C 1.3217456308 3.1837676316 0.1731327357
C 2.0664195041 2.0657303694 -0.1984272897
C 3.0983164484 1.6260258873 0.6247710289
C 3.4276318266 2.3102818512 1.7927338748
C 2.6964674760 3.4415606444 2.1381635582
C 1.6369549790 3.8736094929 1.3436008786
O 3.8884771840 0.5387917724 0.3045070817
C 3.3576490455 -0.4834421792 -0.4677832571
C 4.1663485271 -0.9936451530 -1.4775666165
C 3.7110357856 -2.0698466537 -2.2357528188
C 2.4557135738 -2.6219790830 -1.9922463538
C 1.6585854114 -2.0983335702 -0.9750255892
C 2.1047070758 -1.0322670461 -0.2008501370
C -0.7252622262 -2.4182522266 2.7060642844
H -2.2907357046 -4.1272323604 1.1218588941
H -1.8268899331 -3.4389746458 -0.4402209404
H -0.6112332726 -4.1952103109 0.6128260283
H -1.2853245244 -0.1852744711 1.4215364635
H -1.7491840476 -1.5484988122 -1.3090315998
H -1.5670897529 0.6299628532 -2.2695759947
H -4.5763410498 1.4733477167 -0.0798672881
H -3.4217987802 0.8690176058 1.1204034694
H -4.7505596875 -0.1677553738 0.5648898574
H -4.5673932129 0.4641686227 -2.4830461818
H -3.3780438226 -0.7964116245 -2.8719158229
H -4.7331555979 -1.1579809332 -1.7843116084
H 0.5606227659 4.2328504225 -1.5505096394
H -0.5173614088 4.2574395073 -0.1306864038
H 1.8271321238 1.5311272856 -1.1108030601
H 4.2403801467 1.9489405564 2.4137104549
H 2.9413495272 3.9759033620 3.0507554970
H 1.0475046017 4.7360315977 1.6397950750
H 5.1384525271 -0.5468374676 -1.6582824225
H 4.3403657491 -2.4707295410 -3.0242029101
H 2.0998533754 -3.4553895147 -2.5889661291
H 0.6803485590 -2.5207681517 -0.7706453887
H 1.4824483733 -0.6302229988 0.5926273158
H -1.4027162379 -3.0296905534 3.3157421587
H -0.5892806518 -1.4510678674 3.1968992378
H 0.2404489302 -2.9409695711 2.6944895087
