37
CONF4
C -1.8977326133 2.0067541183 0.1384596673
C -2.7428858948 0.7971018398 -0.2518120896
C -3.7996443705 0.4989520882 0.8201147150
C -4.6707463240 -0.7040970507 0.4637277861
C -3.8065806162 -1.9406985613 0.2204957541
C -2.7563076870 -1.6676895242 -0.8557011929
C -1.8816271661 -0.4556412873 -0.5091301563
N -0.9052884901 -0.2466328635 -1.5810497161
C 0.4751600869 -0.2082824657 -1.5048756418
O 1.1723791961 -0.4239943773 -2.4874782592
N 0.9758965623 0.1232023597 -0.2548023939
C 2.3207040926 0.2234622243 0.1327604195
C 3.3874367662 -0.2703235356 -0.6272950295
C 4.6842791487 -0.1493462211 -0.1396841078
C 4.9468650021 0.4495824531 1.0882858683
C 3.8829271309 0.9375322076 1.8415815897
C 2.5826625907 0.8279692031 1.3702166897
H -1.4025330523 1.8399394094 1.1051085550
H -1.1359977237 2.2281735543 -0.6148428622
H -3.2615353391 1.0262551297 -1.1957341769
H -4.4191717138 1.3903790506 0.9744852941
H -3.2883659662 0.3070100052 1.7757868547
H -5.3973582542 -0.8965443464 1.2609977964
H -5.2473635726 -0.4801929687 -0.4443707453
H -4.4264083659 -2.7951614225 -0.0728702793
H -3.3033063103 -2.2231081512 1.1556472978
H -2.1128993886 -2.5420152840 -1.0053729891
H -3.2626534523 -1.4702259395 -1.8126087697
H -1.3386413525 -0.6984752094 0.4172847669
H -1.1994756732 -0.5297018949 -2.5042248336
H 3.1948652963 -0.7279642439 -1.5866028856
H 5.5033669442 -0.5343743589 -0.7392076409
H 5.9644633284 0.5362944755 1.4533030180
H 4.0628040279 1.4101952231 2.8019458284
H 1.7586204624 1.2161354073 1.9644323079
H -2.5246882944 2.8964653170 0.2530441256
H 0.3185876868 0.4903985091 0.4138692701
