20
CONF18
C -0.2693653434 0.5112788985 -0.9147693980
C -1.3299245235 0.8088911137 0.1300519499
I -3.1045514309 -0.3959035477 -0.2505026699
C 0.9531578013 1.4105287594 -0.8221915045
C 1.8260488229 1.3321113210 0.4721257915
C 2.2738599455 -0.1038047162 0.8840672626
C 3.4054526704 -0.1601707000 1.9589613378
F 3.5455374413 -1.4291148746 2.3684250717
F 4.5691031820 0.2551409274 1.4502682873
F 3.0873790442 0.6016088228 3.0141073105
F 2.7100315220 -0.7781974313 -0.2044578226
F 1.1959569196 -0.7572810759 1.3922720428
F 2.9305674215 2.0930142436 0.2879605268
F 1.1105777659 1.8582723064 1.5006391756
F 1.7753172065 1.1500799089 -1.8791996489
F 0.5732133080 2.7227106233 -0.9195558434
H -0.6677675121 0.6853738817 -1.9198785153
H 0.0547249739 -0.5317576695 -0.8696076505
H -1.0289289123 0.5467990525 1.1413482203
H -1.6685962379 1.8427824764 0.0928018536
