29
CONF26
C 2.5644693411 -0.7878109522 0.4121085769
N 2.0878827533 0.5977913458 0.4652774544
C 1.5357132051 1.0264680527 1.7575203080
S 1.4790494855 1.2390132601 -0.9393855278
O 1.0554584619 2.6108245151 -0.6492781768
O 2.4051462594 0.9547510480 -2.0299962308
N 0.0529578726 0.2560074408 -1.2932370069
C -0.9455892290 0.2150728011 -0.2527164417
C -1.1564645310 -0.9981098176 0.4002821347
C -2.0976454659 -1.0734425748 1.4221024012
C -2.8201388057 0.0587031112 1.7901159257
C -2.6113485728 1.2657659554 1.1259759358
C -1.6772442185 1.3489857427 0.0990985340
S -0.4829297976 0.2611474321 -2.9186396828
C -0.2489134497 -1.5068427116 -3.3580816751
F -1.0570311988 -2.3142142071 -2.6270561989
Cl -0.7535043570 -1.5910194337 -5.0823855489
Cl 1.4240208181 -2.1120657956 -3.1477439601
H 1.7571162418 -1.5053064851 0.6101026340
H 3.0061099918 -0.9942304280 -0.5636484791
H 3.3379160310 -0.9025273133 1.1778809743
H 1.1780557983 2.0535518406 1.6872753802
H 2.3481605907 0.9862563606 2.4904072279
H 0.7175692006 0.3739903824 2.0892291861
H -0.5920115937 -1.8726066569 0.0955213851
H -2.2666876769 -2.0179125240 1.9290069208
H -3.5523426751 -0.0009443556 2.5887826031
H -3.1811234326 2.1462280950 1.4047970478
H -1.5066512478 2.2824758826 -0.4250156125
