54
CONF35
C -2.0113347684 1.3563690116 0.2959085000
C -1.6696398642 -0.0205343423 -0.2957648519
C -1.0136012601 0.1291392619 -1.6592160751
C 0.3855230488 0.7632915403 -1.5602744304
C 1.3232866374 0.0013077519 -0.6008379345
C 0.6346037630 -0.1756290072 0.7845734012
C -0.7220088978 -0.8441328317 0.5908665603
C -1.5721440566 -1.1912933074 1.8179745580
C -3.0075641164 -1.3627611747 1.2442583300
C -2.9388253133 -0.9548756054 -0.2462320902
C -4.1534194047 -0.2510967789 -0.8400536769
O -4.2905457054 -0.2327549175 -2.0549818844
C -5.2114781500 0.3947639629 0.0224763482
O -6.1392807210 1.1222616051 -0.7355439515
O -2.7214457331 -2.1442055677 -1.0014195729
C 1.4993803933 -0.9821241895 1.7496982649
C 2.8768088254 -0.3389218290 1.9234059107
C 3.5209376844 -0.2012003245 0.5801972441
C 4.6598690286 -0.8568882285 0.2967480102
C 5.3056314587 -0.8281813335 -1.0171747309
O 6.3411416230 -1.4497950866 -1.2485232032
C 4.6452716336 0.0060055070 -2.0235552123
C 3.5068625222 0.6602355579 -1.7646163799
C 2.7774578995 0.6296625667 -0.4488222585
C 2.7040271121 2.1032874072 0.0299424106
O 0.9632227621 0.7681115131 -2.8733449666
H -2.6873626238 1.9026530318 -0.3713997647
H -1.1206968302 1.9751655619 0.4198599616
H -2.4873930759 1.2839522443 1.2774437955
H -0.8916196236 -0.8576693394 -2.1201952820
H -1.6304123571 0.7428218976 -2.3316181979
H 0.2899335975 1.8017552498 -1.2051971309
H 1.4721804766 -1.0024272947 -1.0269858123
H 0.4765298235 0.8159154915 1.2324133280
H -0.5426845807 -1.7816121339 0.0454037028
H -1.2261142124 -2.0990022061 2.3175593603
H -1.5386041179 -0.3820754819 2.5565423056
H -3.3557137560 -2.3965677914 1.2975534852
H -3.7229991099 -0.7507747412 1.7982575897
H -5.6978431899 -0.4323815211 0.5755172171
H -4.7495664330 1.0428262481 0.7792410809
H -5.9718818590 0.8812206299 -1.6617839995
H -2.9452887482 -1.9313139234 -1.9198272477
H 1.6220265327 -2.0034720002 1.3632200300
H 0.9975491552 -1.0591431937 2.7205381814
H 2.7572471064 0.6437807461 2.3995263307
H 3.5090329908 -0.9426334375 2.5808800372
H 5.1584155034 -1.4548538241 1.0559048968
H 5.1367623542 0.0851245789 -2.9887445034
H 3.0692870607 1.2933445078 -2.5260471329
H 2.0968216251 2.2181428251 0.9306601357
H 2.2808829228 2.7364877256 -0.7546270349
H 3.7120701421 2.4672704584 0.2475861564
H 0.2967043970 1.1034244304 -3.4842193984
