47
CONF96
C -1.9677879597 3.0972423597 1.6482861720
O -2.3725133715 1.7124901922 1.5174140215
C -2.1661811918 1.1729158405 0.3155911607
C -2.4572491417 -0.1253389895 0.0600261823
C -2.2318617131 -0.6738733475 -1.2845554685
O -2.4901722480 -1.8197973832 -1.6147699010
O -1.6858754958 0.2250116898 -2.1391837453
C -1.3972691944 -0.2728404627 -3.4639721391
C -2.9837640884 -1.0414994064 1.0936777293
C -4.2175954356 -1.6803939515 0.9271681720
C -4.7271230968 -2.5383866719 1.8953620384
C -4.0029784529 -2.7818738393 3.0599720894
C -2.7666748670 -2.1722291719 3.2459485598
C -2.2726263469 -1.3234791745 2.2661478281
O -1.0636649956 -0.6814194789 2.5490725341
C -0.0299229571 -0.7934756333 1.6847514566
C 0.9738581009 0.1625429995 1.7811327454
C 2.0027844568 0.0128382548 0.8652165746
O 3.0126236719 0.9296822973 0.9145323220
C 3.9333255399 0.9444382040 -0.1241087891
C 5.2194614813 0.4913197168 0.1025605678
C 6.1621296369 0.5885706773 -0.9182709911
C 5.8186518584 1.1344669140 -2.1539812758
C 4.5294925076 1.5959972180 -2.3783463467
C 3.5733391419 1.5068762493 -1.3572543024
C 2.2522446371 1.9894165062 -1.5485969480
N 1.1720226274 2.3818349372 -1.6957212449
N 2.0614989951 -0.9612837600 -0.0393246765
C 1.0446867745 -1.8277815782 -0.0057370597
N -0.0024364869 -1.8054028504 0.8155436422
H -2.5341774909 3.7203235536 0.9498229575
H -2.1959353327 3.3803292993 2.6751128644
H -0.8941395235 3.1912235953 1.4602905822
H -1.7551335584 1.8246814949 -0.4519508190
H -0.6861985116 -1.1015498000 -3.4118875992
H -2.3144742429 -0.6060307747 -3.9562451039
H -0.9606928116 0.5705626543 -3.9983145414
H -4.7832363906 -1.4842233801 0.0223081646
H -5.6910898651 -3.0122979617 1.7423049618
H -4.3939048605 -3.4479699080 3.8221134752
H -2.1755683443 -2.3502188263 4.1379579959
H 0.9360536515 0.9773952261 2.4924775017
H 5.4696354366 0.0657787148 1.0680039163
H 7.1719976661 0.2320893069 -0.7451241687
H 6.5584883791 1.2050184568 -2.9433680903
H 4.2486696762 2.0304545957 -3.3311234918
H 1.0792836248 -2.6421357049 -0.7281605443
