43
CONF21
C 3.2450902831 3.7951980456 -2.8010223462
O 3.3973452608 2.5890265294 -3.5578524719
C 3.1297204849 1.4116669830 -2.9231026653
C 2.7196923913 1.3230653151 -1.5943717851
C 2.4858646307 0.0334930276 -1.1176290668
C 2.6482112636 -1.1308765575 -1.9032932644
C 3.0658997597 -1.0091957552 -3.2326241766
C 3.3001459832 0.2597798713 -3.7271864426
N 2.3449269242 -2.2625808071 -1.1559113262
C 1.9994306296 -1.7819968326 0.0116124721
N 2.0798234399 -0.4224310089 0.1162572386
S 1.4797213075 -2.7555762293 1.4389973423
O 1.4238627590 -1.7427939246 2.5810889202
C -0.2985175365 -3.0613646532 0.8567179169
C -1.0473759505 -1.7861045573 0.6688394494
N -0.9546239494 -1.2420959539 -0.5549074480
C -1.5489212440 -0.0680653383 -0.7727346622
C -2.2805041436 0.6282357450 0.1871314262
C -2.9123829352 1.9545939392 -0.1054901559
C -2.3921789004 0.0252388268 1.4438902396
O -3.0950659948 0.6885225548 2.4226673120
C -4.4413875979 0.1971896586 2.5977086171
C -1.7618511275 -1.1935352498 1.7252028278
C -1.8657275583 -1.8243963309 3.0848683585
H 3.5032053020 4.6068628393 -3.4816033055
H 2.2102934001 3.9160589805 -2.4584960829
H 3.9233930942 3.8066296158 -1.9393562656
H 2.5824285327 2.1894953660 -0.9608737676
H 3.1991415065 -1.8855238122 -3.8582494796
H 3.6218718393 0.4023407387 -4.7534559006
H 1.8372229542 0.1148806966 0.9369679919
H -0.1808417129 -3.6095857490 -0.0820164669
H -0.7126802673 -3.7161019963 1.6265773450
H -1.4475057811 0.3495513638 -1.7743711613
H -2.7138327208 2.2532461036 -1.1373856886
H -2.5212485179 2.7277055925 0.5635882110
H -3.9962407955 1.9219807941 0.0441395294
H -4.4390826450 -0.8574891447 2.8945605999
H -4.8874507685 0.8016212013 3.3888797892
H -5.0148575936 0.3148075624 1.6709086080
H -2.2030504934 -1.0929396425 3.8209572104
H -2.5825857735 -2.6544667117 3.0777217437
H -0.8993790199 -2.2140705036 3.4083781155
