29
CONF3
C 2.3238000806 1.4449944729 -0.2997731742
C 1.8442340966 0.0063085425 -0.5041060510
C 2.7360329356 -0.9804056372 0.2543081729
C 0.3815341295 -0.1889118547 -0.1264168650
C -0.2344282797 -1.5445295419 -0.5522702844
C -1.7330435404 -1.1805259641 -0.7015577200
C -1.7318338996 0.3183025697 -0.3304121631
O -0.4519910297 0.7518061351 -0.8463869766
C -1.5199596163 0.4518717093 1.1934011145
C -0.0226572436 0.0791264080 1.3437841878
C -2.8492502064 1.1425691400 -0.9150067446
H 2.3563761185 1.7089805767 0.7626500880
H 1.6687999629 2.1549576857 -0.8096531614
H 3.3380945885 1.5612275367 -0.6952841557
H 1.9110793418 -0.2204639480 -1.5777901689
H 2.4380509854 -2.0187970488 0.0794161373
H 3.7783254479 -0.8726821164 -0.0613330760
H 2.6950424888 -0.7909398591 1.3328959922
H 0.1950417193 -1.8642393720 -1.5068272782
H -0.0555616038 -2.3337507159 0.1829036252
H -2.3897557462 -1.7665068024 -0.0519536034
H -2.0722707971 -1.3078961779 -1.7337855566
H -2.1894552921 -0.1997133215 1.7625308226
H -1.7042401352 1.4845333705 1.5039343276
H 0.1416062439 -0.7943671315 1.9804851706
H 0.5503349184 0.9124524542 1.7567742102
H -2.7214501847 2.1990165402 -0.6616756782
H -2.8712305239 1.0426889368 -2.0040594996
H -3.8112258532 0.8048936088 -0.5164920900
