47
CONF145
C -3.0098689607 -0.3070572917 2.5341486340
C -2.4377766216 -0.6856103785 1.1868387759
C -3.3251099830 -1.3112747667 0.1347341051
C -2.9185515812 0.1547475828 -0.0007277973
C -1.9778446276 0.5243995978 -1.0673279287
O -1.2896664979 -0.2221768105 -1.7292742179
O -1.9427783426 1.8870471929 -1.2083962226
C -0.9018900594 2.3724282641 -2.1040632602
C -1.3370021732 3.7026789174 -2.5235189219
N -1.6494374315 4.7614946714 -2.8609532135
C 0.4318160906 2.4037968759 -1.3944436389
C 1.4208455549 1.4923158943 -1.7588996768
C 2.6129635863 1.4509971275 -1.0511366817
C 2.8010934539 2.3316203288 0.0131173826
C 1.8303054222 3.2447283496 0.3847478843
C 0.6369554362 3.2784592031 -0.3269383514
F 3.9624860443 2.2780408175 0.6932761921
O 3.6137439223 0.5880353992 -1.4337012398
C 3.8923711698 -0.4886797264 -0.6011483105
C 3.0279725308 -0.9091394128 0.4053845051
C 3.3766712722 -2.0217156395 1.1690624342
C 4.5651593416 -2.7055658935 0.9296173509
C 5.4145141797 -2.2699011744 -0.0874460785
C 5.0852639469 -1.1598395571 -0.8568110328
C -4.7336505779 -1.6274670399 0.3832498062
C -5.3675947957 -2.7136319875 -0.0596326120
Cl -4.6191626011 -3.9586539712 -1.0213212145
Cl -7.0514685400 -3.0136357607 0.2863080516
C -1.0004931086 -1.1496493406 1.2477306092
H -3.0483579591 -1.1893840280 3.1825352386
H -4.0142392740 0.1148969807 2.4643369172
H -2.3631883649 0.4364672672 3.0110969312
H -2.8020374479 -1.9706842229 -0.5509809767
H -3.6619706884 0.9067371506 0.2411481265
H -0.8490540893 1.7287365461 -2.9892097651
H 1.2706587771 0.7952007811 -2.5760913540
H 2.0169033476 3.9158826997 1.2158482867
H -0.1351285086 3.9866705796 -0.0430792580
H 2.0957755878 -0.3865703164 0.5906448879
H 2.7044767021 -2.3530995304 1.9545425218
H 4.8282962921 -3.5708752240 1.5285419210
H 6.3442693488 -2.7947506560 -0.2833519540
H 5.7368681834 -0.8070795365 -1.6492459809
H -5.3244024563 -0.9317039053 0.9712315603
H -0.9278545852 -2.0085463464 1.9233163366
H -0.3629065264 -0.3516939446 1.6457499651
H -0.6179740920 -1.4469956759 0.2701213607
