49
CONF73
C -4.2630062398 -2.1665271584 1.0742006004
C -3.2231129760 -1.2527286423 0.4877713609
C -3.2377427254 0.0638609332 0.7571073830
C -2.2895705981 1.0708139632 0.2551070482
C -1.8062454928 2.1802876254 1.2113189872
C -2.6568040143 2.5027026409 -0.0227752292
C -4.0570782905 2.9955374122 0.2739726300
C -2.0400245145 3.1755675061 -1.2295706541
C -0.3816390249 2.4979263441 1.3801392061
O 0.0854833857 2.9883838989 2.3933916121
O 0.3709893436 2.1698325846 0.2949758429
C 1.8066852542 2.3580820037 0.3748489071
N 2.4505332000 1.1097651520 0.1226809984
C 2.6890419753 0.5794946863 -1.1573085225
O 2.5027267087 1.1723140506 -2.2010685918
C 3.1973860929 -0.8028262649 -0.9491216827
C 3.1946577392 -1.0699579328 0.3685244709
C 2.6932502011 0.1263678351 1.0971558396
O 2.5084846621 0.2694347875 2.2892998151
C 3.6086469057 -2.3585128654 0.9777993063
C 3.7063008773 -3.4335688564 -0.1157985288
C 4.4197351948 -2.9042986666 -1.3666128548
C 3.6492386918 -1.7398120441 -2.0080474279
C -2.2176177143 -1.9437797498 -0.3879311738
H -4.8224409344 -2.6755931386 0.2789077707
H -3.7897536479 -2.9542561660 1.6744230304
H -4.9714003212 -1.6251684218 1.7065871036
H -4.0209858552 0.4310003743 1.4178801311
H -1.4960072593 0.7028708800 -0.3864774792
H -2.3418241385 2.2590151294 2.1521482882
H -4.4671880599 2.5787548341 1.1959189635
H -4.0528255295 4.0867774275 0.3684397570
H -4.7270973064 2.7306853635 -0.5519696758
H -2.7156266608 3.0597971183 -2.0843499514
H -1.9096884743 4.2485367286 -1.0473875695
H -1.0736963477 2.7468882671 -1.4949292604
H 2.0820806810 3.0707100547 -0.4048804557
H 2.0777169087 2.7238202745 1.3663540638
H 2.8989135928 -2.6478947902 1.7617079351
H 4.5775332709 -2.2240420171 1.4796348490
H 4.2318678125 -4.3092165387 0.2763213073
H 2.6937676000 -3.7574378414 -0.3884733936
H 4.5461449980 -3.7080329636 -2.0979239265
H 5.4230009159 -2.5572766756 -1.0884128458
H 4.2663045443 -1.2079460654 -2.7417211311
H 2.7724183735 -2.1091188092 -2.5589316561
H -1.4674815686 -1.2738254809 -0.8105814991
H -1.6973772877 -2.7240024716 0.1820250703
H -2.7266738531 -2.4534046222 -1.2156911781
