48
CONF7
C -3.2613981886 2.2970606554 -0.0689631010
Si -1.7448450619 1.8148252600 0.8822539286
O -1.8015870746 2.3503354276 2.4459841028
O -1.5770372945 0.2000137710 1.0372094769
Si -1.9414693281 -1.2974290033 0.4452163033
C -3.4908705913 -1.2414470914 -0.5825956666
C -2.0829105202 -2.4329992707 1.9129372582
O -0.7199191496 -1.7796595256 -0.5499168531
Si 0.8421796895 -2.3066929209 -0.4420481296
C 0.8816197267 -4.0431939324 0.2280407486
C 1.5820031178 -2.1854562619 -2.1462221668
O 1.6655556376 -1.3543154196 0.6266918887
Si 2.3463096230 0.1520120423 0.6325941005
C 1.9542400102 0.9477938746 2.2686112029
C 4.1773200319 -0.0227599817 0.3450445007
O 1.7371632309 1.0260619428 -0.6246372085
Si 0.6064132315 2.1278046020 -1.0891553012
C 1.4690201205 3.7162988990 -1.5236309187
C -0.3542465228 1.4082530561 -2.5128311104
O -0.4102679621 2.4540537499 0.1739866852
H -4.1628719702 1.8783555546 0.3895584702
H -3.2060785043 1.9442537139 -1.1037831119
H -3.3619278047 3.3878975907 -0.0889817586
H -1.8513683325 3.3047359987 2.5721165968
H -3.3531895069 -0.6038237027 -1.4624694422
H -3.7495653727 -2.2478167515 -0.9299271638
H -4.3358837113 -0.8516830145 -0.0055036717
H -2.2574792187 -3.4669458158 1.5966773554
H -1.1662499391 -2.4092055215 2.5130209646
H -2.9162031317 -2.1269513509 2.5550702540
H 0.4955714678 -4.0775486263 1.2522343366
H 1.9071606337 -4.4284689165 0.2382246882
H 0.2728472863 -4.7125225819 -0.3892874485
H 1.5480233558 -1.1537684551 -2.5112927790
H 1.0322736904 -2.8177200987 -2.8521553634
H 2.6271131466 -2.5137870277 -2.1393963352
H 0.8740383545 0.9685800698 2.4440893979
H 2.4237586152 0.3875730631 3.0848924317
H 2.3272990475 1.9772465737 2.3032372566
H 4.3716970789 -0.4757793219 -0.6336749727
H 4.6722406943 0.9542963041 0.3717212871
H 4.6347100181 -0.6573630709 1.1116982234
H 2.0134085479 4.1077850113 -0.6569895200
H 0.7494891236 4.4761092220 -1.8470692384
H 2.1875371372 3.5593534465 -2.3351676851
H 0.3132846447 1.1806817914 -3.3512322254
H -0.8484477685 0.4766225450 -2.2143459289
H -1.1184600009 2.1093336828 -2.8653943715
