28
CONF35
O -2.7447393000 1.1842691034 -2.8114892309
C -1.5062065138 0.7447095063 -2.2520850192
C -1.7307196985 -0.3570612272 -1.2190889550
O -0.4478626100 -0.9153563627 -0.8397609367
C -0.2310593052 -0.7134388036 0.5578127777
C -1.1745525901 0.4161653111 0.9621530331
C -2.3821875308 0.1422131122 0.0790711779
O -3.1551271624 -0.8796004025 0.7194822681
N 1.1938155268 -0.4201568457 0.7643601964
C 1.8139721933 0.5338282162 0.0000212639
C 3.1198743352 0.8513122702 0.1330979640
C 3.9272621953 0.1737162499 1.1151482824
O 5.1201709463 0.3675604120 1.3367596719
N 3.2195804080 -0.7847424273 1.8543646632
C 1.8866182718 -1.1262740768 1.7503070991
O 1.3660918747 -1.9687658806 2.4680702947
H -3.0832718361 0.4785981327 -3.3770899253
H -0.8188301887 0.3766385990 -3.0258984035
H -1.0505129742 1.6223281688 -1.7790956621
H -2.3334210410 -1.1594411671 -1.6670675172
H -0.4348929720 -1.6321007072 1.1139230968
H -0.7360021993 1.3878094575 0.7133362457
H -1.4212482066 0.3985737757 2.0252984236
H -2.9898663094 1.0373356264 -0.1019061244
H -3.9030068204 -1.0897967814 0.1457451895
H 1.1819394822 1.0103167450 -0.7406874233
H 3.5765933856 1.6061664055 -0.4919707282
H 3.7375892584 -1.2848058118 2.5671882778
