34
CONF9
C 2.3753548674 -0.3782038703 -0.9147884347
C 3.3932927412 -1.2044255673 -0.1577891073
O 4.4611169836 -0.2691776702 0.2141004114
P 4.1303088268 1.1000694545 0.9746613043
O 3.6376978239 0.5497853830 2.3987267592
O 5.2524546506 2.0584649501 0.9689138835
O 2.8144024009 1.7174612443 0.2553821132
C 1.8151966208 0.7216508822 -0.0239591520
C 0.6121873995 1.1822818916 -0.8254919936
O 1.0609494367 1.9503777312 -1.9239329695
C 0.0902126778 -0.2144380150 -1.2896970321
O 1.2065635309 -1.1138348017 -1.2876457539
N -0.9360920985 -0.7627969991 -0.4112385272
C -0.7848658942 -1.6168306134 0.6630934381
N -1.9202784878 -1.8942830643 1.2674312657
C -2.8687958742 -1.1798934729 0.5604541878
C -2.2800860464 -0.4683375935 -0.4860124288
N -2.8991236507 0.3307801923 -1.3647666394
C -4.2161339013 0.3749528787 -1.1309250442
N -4.9187362392 -0.2502532873 -0.1759447840
C -4.2652261751 -1.0471807043 0.6993780346
N -4.9622558432 -1.6689227707 1.6643730533
H 2.8538715920 0.0655594479 -1.7991773006
H 3.8718337342 -1.9660658096 -0.7741645366
H 2.9627958683 -1.6573718058 0.7420249206
H 3.3330705147 1.2442986925 3.0052785400
H 1.4549252766 0.2867840312 0.9188095424
H -0.1418358088 1.7064705317 -0.2275160849
H 0.2863365505 2.3116346380 -2.3744410223
H -0.3382268580 -0.1365538202 -2.2954326399
H 0.1861652586 -2.0096533595 0.9341494311
H -4.7985700496 1.0030611909 -1.8044368932
H -4.5041368399 -2.2999733621 2.3001190841
H -5.9643744699 -1.5760908621 1.7004644809
