47
CONF7
C 5.1486899514 -1.7051381779 -0.0472562136
C 4.7937225234 -0.3760967595 0.6346793474
C 3.8676253504 0.4521437478 -0.1898288214
N 4.2987040109 1.4888443527 -0.9207770307
N 3.2176830644 2.0113057335 -1.5247252853
C 3.3964788614 3.0741965107 -2.5081577323
C 2.0808176746 1.3183673896 -1.2415996312
C 0.7390656802 1.7200152114 -1.7353996965
O 0.4110731577 2.9090560033 -1.8178216785
N -0.0639742070 0.6857039997 -2.0627828771
C -1.4777809810 0.8325004566 -2.4009127717
C -2.3554089503 0.1235206049 -1.3973030811
C -2.3556285385 0.5170921244 -0.0553368708
C -3.1490197959 -0.1384292315 0.8748675470
C -3.9739219355 -1.2146522887 0.5076356115
C -3.9672215824 -1.5977314490 -0.8349363400
C -3.1684773148 -0.9404887971 -1.7729823971
C -4.8305970384 -1.9102885997 1.5672760922
C -3.9170885227 -2.4678327036 2.6759622014
C -5.6474376144 -3.0712706715 0.9880861975
C -5.8078955277 -0.8884898256 2.1805713886
C 2.4835329478 0.3048927400 -0.3742489267
Cl 1.4768191727 -0.8552323910 0.4301292596
H 4.2502485355 -2.3008669267 -0.2346728985
H 5.6451168915 -1.5250813449 -1.0055395779
H 5.8214271519 -2.2909943795 0.5858370341
H 4.3267459933 -0.5740738433 1.6061942772
H 5.7021790588 0.2042917741 0.8215953561
H 2.5605144940 3.7698525322 -2.4475928966
H 3.4533825942 2.6518357062 -3.5167459698
H 4.3305010950 3.5857401297 -2.2739761208
H -1.6917272238 1.9048810028 -2.4173158724
H -1.6569643743 0.4337649342 -3.4054639903
H -1.7246268409 1.3438485385 0.2625355647
H -6.4665341476 -0.4736936443 1.4100781782
H -4.5831921390 -2.4230071914 -1.1724932164
H -3.1820502757 -1.2665117194 -2.8098956829
H -3.2092945213 -3.1955295086 2.2647283616
H -4.5232009215 -2.9685512491 3.4389827978
H -3.3468055788 -1.6729426494 3.1651611402
H -5.0021962974 -3.8437953281 0.5566601670
H -6.2328502748 -3.5318955750 1.7900546794
H -6.3458570216 -2.7305361154 0.2165286838
H -6.4285709506 -1.3777765252 2.9392969224
H -5.2761307504 -0.0613286907 2.6599449768
H -3.1255677200 0.1980003065 1.9068775767
H 0.2996204991 -0.2535877982 -1.9881805310
