53
CONF18
C -4.3092286316 -2.2443851167 -0.6013272481
C -3.6440949360 -1.3997099322 0.4942834747
C -4.2317438063 -1.8213530149 1.8527765569
C -4.0215066857 0.0616550086 0.1879111498
O -3.7173174927 0.9046998771 1.2943852597
C -4.0555516097 2.2623421120 1.0586471355
C -3.1199209512 2.9743420173 0.1063306891
C -1.7850588569 2.5848725929 0.0245146967
C -0.9156641096 3.2910030899 -0.8013344915
C -1.3613200893 4.3713264851 -1.5580300165
C -2.6984128238 4.7416896843 -1.4827965249
C -3.5777810502 4.0497061666 -0.6555034549
O 0.4006780928 2.9199045872 -0.9757861316
C 1.1427566017 2.4540175873 0.0916197927
C 0.9758287821 2.9238335319 1.3928759294
C 1.8239771763 2.4566260156 2.3924581166
C 2.8354305329 1.5448472988 2.1007354794
C 2.9960036385 1.0964650216 0.7922668927
C 2.1472807550 1.5406697361 -0.2137040493
C -2.1231589115 -1.5719197906 0.5121747036
C -1.4548804957 -2.4048158702 -0.3856966395
C -0.0734704717 -2.5915438588 -0.3427609719
C 0.6556297126 -1.9027251355 0.6115547102
C 0.0342957314 -1.0439858069 1.5088415846
C -1.3432103633 -0.8970339887 1.4639496629
O 2.0407896003 -2.0156107777 0.7997474386
C 2.8436136430 -2.6729416332 -0.0459235354
F 2.5183793020 -3.9780806842 -0.1883149670
F 4.0823130224 -2.6108582560 0.4568963529
Br 2.9171483161 -1.8842630855 -1.8959721912
H -3.9881556591 -1.9450736897 -1.6048227195
H -5.3954392386 -2.1267597419 -0.5465914302
H -4.0864680656 -3.3068151299 -0.4674865113
H -3.8091659366 -1.2429958014 2.6755461973
H -4.0274771695 -2.8812253817 2.0330448754
H -5.3169143689 -1.6700766485 1.8583921176
H -3.4886158756 0.3997818508 -0.7149608320
H -5.1060694783 0.1136982093 -0.0125446975
H -4.0126969809 2.7480524068 2.0415756584
H -5.0925210886 2.3450539537 0.6931949237
H -1.4323027987 1.7303404164 0.5921210843
H -0.6595078216 4.8949893147 -2.1973686804
H -3.0559702161 5.5772277445 -2.0760787856
H -4.6217097005 4.3451637791 -0.6019016132
H 0.2011363548 3.6482992274 1.6172644133
H 1.6988557887 2.8237232261 3.4064591017
H 3.4962885496 1.1912768647 2.8848512669
H 3.7798213781 0.3862126654 0.5501366359
H 2.2524167509 1.1933271840 -1.2349883519
H -2.0040497776 -2.9485290941 -1.1440602980
H 0.3958642750 -3.2660254187 -1.0453956405
H 0.6366333582 -0.5026970102 2.2305042461
H -1.8204038694 -0.2350950020 2.1759366802
