65
CONF32
C -1.8652310164 2.6319363789 -0.2675902253
C -1.4629706977 3.3271757705 1.0299508707
C -1.3123347472 2.3536898856 2.2095404754
C -1.0129174831 3.0963712656 3.5169218338
C -0.1892409900 1.3756181286 1.9313559760
O 0.9839698250 1.6912417346 1.8427861903
O -0.6425111501 0.1161236555 1.8039284414
C 0.3423965213 -0.9650020627 1.6781983379
C 0.6220015349 -1.5388768988 3.0585630815
C -0.6167364336 -2.1495524871 3.7383074362
C -1.5353924250 -2.7912774346 2.7444991353
C -1.3999083883 -2.7393871262 1.4055566724
C -0.2486111501 -2.0100970640 0.7396951671
C -0.6582620296 -1.4525681504 -0.6405240784
C -1.2030565840 -2.5876625989 -1.5365122789
C -2.2582269683 -3.3695815220 -0.8086743330
C -2.3419454082 -3.4157889629 0.5305563220
C -0.1230573197 -3.5436727179 -2.0765371437
C 0.4802163428 -0.6651657732 -1.2980585732
C 0.1123714266 -0.0929102714 -2.6682475015
C 1.1038828552 0.9277185679 -3.2066977805
C 2.5200870640 0.4193518393 -3.3773054982
C 3.4558191182 1.5717221507 -3.7224012010
C 3.4407312640 2.5647976548 -2.5758409543
C 2.0677653525 2.9107914191 -2.0526953666
O 1.8656054307 3.8950423488 -1.3641117519
O 1.0372711155 2.0852363981 -2.2908822321
O 3.0229249594 2.2860245688 -4.8918560398
C -1.3835205406 -1.1462173941 4.6201535718
H -1.1076027948 1.9050228574 -0.5779700565
H -2.8152254781 2.0998706048 -0.1466958872
H -1.9787052621 3.3538838954 -1.0820325921
H -0.5169507067 3.8668539989 0.8977883674
H -2.2194300966 4.0702176870 1.3087138281
H -2.2405192376 1.7816458842 2.3165629987
H -0.8949328266 2.4004355048 4.3535335336
H -0.0935967404 3.6814450267 3.4201065962
H -1.8364765536 3.7777207052 3.7494322742
H 1.2584871535 -0.5421452319 1.2628445272
H 1.3869671488 -2.3129351598 2.9228423474
H 1.0615630679 -0.7634828869 3.6960415977
H -0.2609595029 -2.9413971047 4.4144026601
H -2.3866285003 -3.3337999338 3.1573326654
H 0.5628498025 -2.7357604631 0.5729308949
H -1.4956575226 -0.7584661577 -0.4776321112
H -1.6837846417 -2.1208079262 -2.4071624740
H -2.9652657377 -3.9340111387 -1.4138552159
H -3.1309000213 -3.9948307145 1.0079412458
H 0.4260889449 -4.0210380677 -1.2588459248
H -0.5898598494 -4.3364247888 -2.6698170821
H 0.5944899501 -3.0231510885 -2.7182372850
H 0.7572511451 0.1729863827 -0.6487941771
H 1.3674287724 -1.3061972400 -1.3748628267
H 0.0311640419 -0.8856541128 -3.4210849344
H -0.8723930148 0.3891794183 -2.6131827101
H 0.7404280759 1.3100168063 -4.1666662134
H 2.8823299204 -0.0622201484 -2.4624760080
H 2.5177957264 -0.3335666804 -4.1737711760
H 4.4783606677 1.1986649977 -3.8692374412
H 3.9887349348 2.1421361444 -1.7242149380
H 3.9419119819 3.4979712019 -2.8460238623
H 3.0153674137 1.6664614478 -5.6332856615
H -0.7189083959 -0.7234673140 5.3811179778
H -2.2148267134 -1.6432260977 5.1311548351
H -1.7897139262 -0.3270109174 4.0210239867
