15
CONF13
C -1.9084678165 0.6237324689 0.1725499163
C -0.5626358585 0.0196792592 0.5673881869
C 0.6127055206 0.3107309508 -0.4096344340
C 1.8772831921 -0.5877786048 -0.2410217051
F 1.6345763376 -1.8435288556 -0.6369789213
F 2.2794830146 -0.6042624089 1.0382941933
F 2.8720252511 -0.0928788940 -0.9957002751
F 1.0082425587 1.5984080254 -0.2555912657
F 0.1729216720 0.1449055036 -1.6848467078
F -0.7122399162 -1.3411574711 0.6443749069
F -0.1874504238 0.4624523287 1.8035881209
O -1.8809124228 2.0375724483 0.1688977225
H -2.6111775059 0.2929940309 0.9455860484
H -2.2174870845 0.1979255038 -0.7880594153
H -1.6545347037 2.3446305672 -0.7180638752
