45
CONF159
C -5.2035066991 2.5974511585 -2.0827318688
O -5.2641075961 1.5800346409 -1.0628995201
N -4.0503598052 0.9314755036 -0.9933876097
C -4.0184707804 0.0064859725 -0.0842974497
C -5.0772452945 -0.3699719080 0.8142207654
C -6.4194426297 -0.0796946807 0.9119327736
C -6.8978960527 -0.7419347632 2.0726833770
C -5.8269862817 -1.3832079535 2.6203425621
O -4.7137637176 -1.1734972952 1.8751309814
C -2.7199295770 -0.7657991322 -0.0554963572
O -2.7004712933 -1.9854855908 0.0653198968
N -1.6064095391 0.0038861484 -0.1965524796
C -0.3021414311 -0.5610200053 -0.3150345731
C 0.8130223207 -0.0753907572 0.6566066859
N 1.5796388644 0.3591612854 -0.5138226891
C 0.6229563835 -0.0380857851 -1.4443507653
O 0.5867768846 -0.0005949146 -2.6480075229
C 2.9539623466 0.5679758449 -0.5784381208
C 3.7423017424 0.2741269818 0.4779092242
C 3.2243479676 -0.3243020893 1.7592883059
S 1.7198310510 -1.3651598204 1.5817187244
C 5.2030034759 0.6126992575 0.5248019103
O 6.0156674387 -0.5760528014 0.7556353011
C 6.1062679880 -1.4608877337 -0.2623703798
O 5.6238534540 -1.2868939349 -1.3857686741
N 6.7873766555 -2.5572847386 0.0956375625
C 3.3957496566 1.2570734975 -1.8476570594
O 2.7925979782 2.2234021267 -2.2666038187
O 4.4525800150 0.7624888934 -2.4774665492
H -6.1894857090 3.0643056370 -2.0776956680
H -4.4333052518 3.3353139792 -1.8388850602
H -5.0029725524 2.1453778537 -3.0585747575
H -6.9896738651 0.5263014462 0.2286174777
H -7.9080521498 -0.7409617064 2.4538719929
H -5.6967537225 -1.9994534582 3.4968756780
H -1.7250923580 1.0013895988 -0.3074059439
H -0.3836432935 -1.6522709408 -0.3520543058
H 0.5339509752 0.7543309600 1.3133810791
H 3.9887995076 -0.9800227617 2.1882697003
H 3.0304303541 0.4697022835 2.4924290053
H 5.5625314024 1.1455387565 -0.3567555664
H 5.4115765351 1.2240855705 1.4076524817
H 6.9618950697 -3.2693527659 -0.5934058781
H 7.1810301304 -2.6464881540 1.0178360705
H 4.8395606933 -0.0398252915 -2.0104991293
