47
CONF102
C -3.6262148011 -0.8675393107 2.1163801618
C -3.4761837592 -0.0477748893 0.8547370386
C -4.3132523307 1.1930670509 0.6505185543
C -2.8390061524 1.3334094283 1.0320213271
C -1.9039521018 1.8575007235 0.0271464395
O -2.0889221345 1.9680676849 -1.1654158468
O -0.7215081693 2.2051541887 0.6276899984
C 0.3196227395 2.6147184421 -0.2962055994
C 1.2826079139 3.3655066087 0.5092581490
N 2.0755470911 3.9477171030 1.1136137291
C 0.9699303033 1.4242157998 -0.9651717687
C 1.4962085125 0.3976044041 -0.1797710547
C 2.0686452150 -0.7089508904 -0.7866053023
C 2.1124058645 -0.7685006490 -2.1818049581
C 1.6093755342 0.2477850328 -2.9706954155
C 1.0285034227 1.3524644106 -2.3536982298
F 2.6586971970 -1.8556859407 -2.7609964660
O 2.5066185561 -1.7595797602 -0.0165010281
C 3.8550443353 -2.0926302760 -0.0589043323
C 4.8366410133 -1.2057785713 -0.4896001884
C 6.1688024156 -1.6138210210 -0.4612917351
C 6.5153166952 -2.8820641992 -0.0032548166
C 5.5158093473 -3.7518184986 0.4317970432
C 4.1808460934 -3.3640741300 0.4044227030
C -5.3260793800 1.6274779131 1.6148676485
C -6.4967029856 2.1846099648 1.3032140993
Cl -7.0298059841 2.4941980140 -0.3261356960
Cl -7.6471596668 2.6736399928 2.5208628529
C -3.1513626346 -0.8727923558 -0.3691011568
H -2.7259964327 -1.4713990984 2.2697106962
H -4.4788990034 -1.5483963391 2.0177598645
H -3.7753080088 -0.2529613014 3.0062311706
H -4.5132015455 1.4266976395 -0.3906219481
H -2.6115873487 1.6053450345 2.0571419500
H -0.0983243960 3.2875159143 -1.0536053994
H 1.4635199487 0.4404577452 0.9046528466
H 1.6584350106 0.1601317071 -4.0504796650
H 0.6110604188 2.1501947005 -2.9586970436
H 4.5720757548 -0.2126216072 -0.8370206141
H 6.9385140280 -0.9260607284 -0.7971671712
H 7.5550841016 -3.1907432382 0.0161724514
H 5.7738348786 -4.7430240235 0.7913375652
H 3.3910791762 -4.0302301021 0.7353248313
H -5.1211266540 1.4971591909 2.6730084259
H -3.9337403736 -1.6254572121 -0.5127013017
H -2.1991884127 -1.3972047118 -0.2296596570
H -3.0867029906 -0.2655297494 -1.2731330543
