42
CONF54
C 4.0967795729 -0.9774813556 -3.8505996625
C 4.3588498191 -1.7653241014 -2.7327331994
C 4.5340543629 -1.1309541079 -1.5096159516
N 4.4296406855 0.1949562346 -1.3463885360
C 4.1749759395 0.9332145370 -2.4296220157
C 4.0178417643 0.4005130646 -3.7110964432
N 4.1168958813 2.3356449067 -2.2030307585
S 2.6767710776 3.1786333914 -2.6083467490
O 2.8267922222 4.4895770259 -1.9635820100
O 2.4997708032 3.0694816958 -4.0609108613
C 1.3621603775 2.2639173455 -1.8106266984
C 1.1198118466 2.4834453844 -0.4521799348
C 0.1434760767 1.7406985677 0.1867122186
C -0.5819047752 0.7772312656 -0.5339615617
C -0.3303477081 0.5797929000 -1.8963305649
C 0.6503143810 1.3185959266 -2.5437969140
N -1.6063908213 -0.0294579356 0.0115348142
N -1.7129521871 0.0378187079 1.2654333306
C -2.7394294150 -0.7357676992 1.8243708828
C -2.8345719018 -0.6880504982 3.2127047456
C -3.8162045312 -1.4134096736 3.8901815889
C -4.7258457521 -2.2046449011 3.1433622280
C -4.6246134618 -2.2467604957 1.7406293309
C -3.6512070579 -1.5275539297 1.0905224310
O -5.6920499256 -2.9233361709 3.7182520828
C -3.9370324630 -1.3810807433 5.3496250231
O -4.7962804073 -2.0053340900 5.9738493054
O -3.0286798752 -0.6135834787 5.9631412940
H 3.9723038638 -1.4295446249 -4.8292336789
H 4.4365342031 -2.8440111443 -2.8072805532
H 4.7584275528 -1.7064389325 -0.6139853192
H 3.8483312036 1.0481640249 -4.5618138315
H 4.3510767906 2.5482642189 -1.2326471837
H 1.6850887708 3.2334854192 0.0908538320
H -0.0702714702 1.9044511652 1.2358983928
H -0.9121610495 -0.1595633730 -2.4366310605
H 0.8505693200 1.1731488012 -3.5988303868
H -2.1303607928 -0.0756112467 3.7639478258
H -5.3342432163 -2.8576901004 1.1927066507
H -3.5784452490 -1.5614691922 0.0097601924
H -5.6186231790 -2.7754102109 4.6964906733
H -3.1888513813 -0.6585568787 6.9213188094
