38
CONF38
O 0.6934997375 0.6373147572 0.5445413776
P -0.1479662520 -0.4129791384 -0.0685250038
O 0.0672795844 -1.9097988267 0.4670258340
C 0.1968595167 -2.1349058962 1.8532739561
C -0.9416850910 -2.4220540552 2.5922222970
C -0.7990676225 -2.6938631468 3.9513572245
C 0.4616564311 -2.6759654110 4.5442481413
C 1.5891334958 -2.3871181354 3.7776301989
C 1.4636117482 -2.1123884858 2.4179636632
O -0.0006835350 -0.6141291678 -1.6529306747
C 1.2786524944 -0.5567728771 -2.2436626087
C 1.7193054262 0.6552258632 -2.7538842220
C 2.9603293801 0.6984815042 -3.3845773735
C 3.7345505690 -0.4552784249 -3.4938651769
C 3.2673458350 -1.6604458962 -2.9739008761
C 2.0271675674 -1.7208122674 -2.3415565585
O -1.7354234077 -0.2438709277 0.0889330824
C -2.3138284430 1.0336173734 -0.0606879833
C -2.4514386246 1.8383743482 1.0604564292
C -3.0720049591 3.0768180653 0.9163691786
C -3.5398585834 3.4886542053 -0.3302916351
C -3.3903410000 2.6596089414 -1.4400459724
C -2.7721932610 1.4173488491 -1.3125184233
H -1.9132138729 -2.4356702306 2.1102622946
H -1.6785431026 -2.9220637414 4.5447827270
H 0.5660909200 -2.8892836800 5.6029845027
H 2.5727430450 -2.3744842751 4.2359519893
H 2.3266602265 -1.8845477013 1.8015302768
H 3.3204515537 1.6384170133 -3.7902666188
H 4.7006230355 -0.4152085619 -3.9861950828
H 3.8661180085 -2.5613730099 -3.0606509429
H 1.6427150542 -2.6502315725 -1.9354849355
H -2.0794302681 1.4964099890 2.0204156406
H -3.1891381959 3.7193166035 1.7830949263
H -4.0230031343 4.4543886269 -0.4361585634
H -3.7564585780 2.9757572330 -2.4115048261
H -2.6501919403 0.7545524700 -2.1624124130
H 1.0994389590 1.5401229865 -2.6557648533
