19
CONF1
C -2.3575750194 0.8118795745 -0.5941904963
C -1.6416902940 0.2914973579 0.6163259674
C -2.1581952696 0.2961561601 1.8482034992
C -0.2685133192 -0.2695396703 0.4561513153
O 0.4053332037 -0.7296058082 1.3603697853
O 0.1398149436 -0.2065797435 -0.8251925544
C 1.4320832950 -0.8003679762 -1.1496792228
C 2.6305657928 -0.0242317678 -0.6094249582
O 3.1169955215 -0.4852914406 0.6358744489
H -1.7913534184 1.6196499024 -1.0679966640
H -2.4760575275 0.0275331618 -1.3480918496
H -3.3452798145 1.1886914542 -0.3203313582
H -1.5894525135 -0.0935888940 2.6849898374
H -3.1528495906 0.6866612959 2.0361058606
H 1.4321236743 -0.7941683560 -2.2421624109
H 1.4547159213 -1.8331718709 -0.7849648348
H 3.4556953043 -0.1428170859 -1.3217331956
H 2.3701483116 1.0482875938 -0.5856512519
H 2.3434916929 -0.5909941994 1.2113979771
