71
CONF547
C 4.5148774463 -2.5390876794 4.1637389982
C 5.5801438738 -3.1007812698 3.2648411991
C 5.9131623858 -2.4564425742 2.0612365631
C 6.8952224219 -2.9643272407 1.1961764002
C 7.5678059226 -4.1280909930 1.5804259172
C 7.2609880839 -4.7746185060 2.7724097537
C 6.2669667604 -4.2673519943 3.6038781126
C 7.2035098712 -2.3062010686 -0.1174975169
N 5.2028448029 -1.2754239505 1.7157866927
C 5.7502899076 -0.0408671973 1.6135811515
O 6.9473186239 0.2087274312 1.7656051610
C 4.7459416336 1.0763723696 1.3441775809
N 3.4558051947 0.6067263137 0.8567495860
C 3.5025539574 0.3239934005 -0.5845219536
C 2.1704124199 -0.2356103661 -1.0514277128
N 1.0857745277 0.7193855108 -0.7915839452
C 1.0462682296 1.0091543095 0.6474753032
C 2.3779134776 1.5666746419 1.1251438891
C -0.1891809464 0.1642412368 -1.2648475101
C -1.3330154380 1.1739639691 -1.2794972733
C -2.6008929658 0.5537438763 -1.8646622613
C -3.7977393098 1.5200067471 -1.8961569178
C -4.9742799386 0.8819541388 -2.6187033864
C -5.3534643577 1.3312373836 -3.8854357443
C -6.4086061787 0.7389164850 -4.5781869308
C -7.0733450972 -0.3133056546 -3.9758930038
C -6.7328253598 -0.7927068317 -2.7215805985
C -5.6782717387 -0.1836945247 -2.0487680212
F -8.1055834960 -0.9022581115 -4.6396229685
C -4.2219466934 2.0398300956 -0.5321069142
C -4.1252987655 1.2733019437 0.6327443919
C -4.5727880368 1.7616797851 1.8585976824
C -5.1187676387 3.0321330331 1.8987403905
C -5.2304771088 3.8309763411 0.7738436253
C -4.7753804980 3.3208285846 -0.4385470173
F -5.5577627185 3.5178973359 3.0918839985
H 4.4564886102 -3.1105828785 5.0923582151
H 4.7170420198 -1.4906845406 4.4086366592
H 3.5290467600 -2.5697321782 3.6844513475
H 8.3304295168 -4.5354540843 0.9225903447
H 6.0227713227 -4.7735882454 4.5334694015
H 7.7980358801 -1.3982790403 0.0275775083
H 6.2849504873 -2.0064833601 -0.6322901134
H 7.7621307966 -2.9873481229 -0.7633266602
H 4.6050003224 1.5888596723 2.3052368973
H 5.2320456015 1.7991370512 0.6657838140
H 3.7404382678 1.2422541409 -1.1548022358
H 4.2939763998 -0.4082243329 -0.7821397869
H 1.9847821562 -1.2026547079 -0.5411419684
H 2.2195788531 -0.4308739037 -2.1288901309
H 0.2678323731 1.7506964250 0.8516359532
H 0.8047133467 0.0955848418 1.2282130890
H 2.3257888642 1.7482069810 2.2045198374
H 2.5718205932 2.5345688239 0.6245893764
H -0.4855395405 -0.7162059281 -0.6581374130
H -0.0285673156 -0.1981096838 -2.2888422385
H -1.5423754361 1.5324985756 -0.2661575389
H -1.0397030277 2.0481050637 -1.8753614784
H -2.4088321067 0.2307033884 -2.8956503707
H -2.8685751965 -0.3537242140 -1.3079254409
H -3.4971061037 2.3929459102 -2.4884015564
H -4.8175660176 2.1580488659 -4.3430696407
H -6.7085490733 1.0853951760 -5.5614078606
H -7.2835094599 -1.6195094087 -2.2857622632
H -5.4071582598 -0.5467496602 -1.0619453527
H -3.6894489696 0.2800121387 0.6008008030
H -4.4961118503 1.1713332456 2.7654265315
H -5.6580016189 4.8251389362 0.8484721150
H -4.8556220100 3.9334589302 -1.3326920286
H 7.7912506110 -5.6802468826 3.0508243123
H 4.1869809864 -1.2911120403 1.6726012371
