38
CONF1
C 2.5748158991 3.7250975242 -3.1262520173
C 2.2428697569 2.5146040901 -2.3162805971
N 1.9282437768 2.7100379991 -1.0261886010
C 1.6831423242 1.5847662907 -0.3451405214
N 1.7387784782 0.3442253868 -0.8412141642
C 2.0371844286 0.2855085540 -2.1413731860
N 2.3021373464 1.3292895485 -2.9319881706
O 2.0878947469 -0.8987944813 -2.7387899146
C 1.7949839283 -2.0659965300 -1.9332686840
N 1.3398154039 1.7615596864 0.9783492557
C 0.8900268169 0.8549707290 1.9575508907
O 0.4701532753 1.2684470346 3.0194776486
N 0.9881113655 -0.4744172587 1.6037526444
S 0.1840583426 -1.6898341672 2.4882550497
O 0.7483593695 -1.7538867024 3.8308634356
O 0.2062113246 -2.8463608515 1.5945810940
C -1.4977519092 -1.0864745285 2.6786445971
C -2.4242137100 -0.8847747788 1.6713542683
S -3.9529770844 -0.4189463533 2.3578452110
C -3.3215882856 -0.4952648951 3.9570998016
C -2.0040430054 -0.8637746059 3.9778382009
C -2.2511629979 -0.9504336427 0.2170601539
O -1.1832018612 -1.0128604077 -0.3549410250
O -3.4430289734 -0.9067202124 -0.4177922643
C -3.3622837883 -0.9200437058 -1.8595170491
H 2.3610823720 3.5487067991 -4.1809334856
H 2.0341115328 4.5964085520 -2.7541086526
H 3.6474877000 3.9306648039 -3.0295312155
H 2.5223598252 -2.1641767643 -1.1226154300
H 1.8840447037 -2.9051262456 -2.6221697627
H 0.7841524080 -2.0079614456 -1.5221805680
H 1.2851960568 2.7255676146 1.2770226790
H 1.1255387231 -0.6738527188 0.6041309189
H -3.9526665441 -0.2556360895 4.8023100363
H -1.4021489449 -0.9672369801 4.8698835810
H -4.3938052789 -0.8727918797 -2.2059920608
H -2.8796652443 -1.8391358970 -2.2007988837
H -2.7922235794 -0.0578180773 -2.2149432186
