121
CONF4
C -0.5912138839 3.1431561598 -1.0620570023
C 0.1314871053 4.4654231688 -0.8572881065
C 1.6277247253 4.4386986124 -1.1853305796
C 2.2008142733 5.8543498076 -1.1436468909
O 2.3784626207 3.5449075941 -0.3326210699
C 2.4790514204 3.8982780326 1.0438154779
C 1.7996592049 3.8067405086 -2.5754823160
O 3.1806799358 3.7125565360 -2.9294148605
C 1.1344438040 2.4252802280 -2.6307250046
C 1.1904400391 1.8075635676 -4.0119227727
O -0.2682430990 2.5309852983 -2.3013081711
O -0.3367153759 2.3032111782 0.0595544025
C -1.2766039674 1.2301709343 0.2160593712
C -0.5325658653 0.0288184356 0.8298252184
C 0.2358668583 0.4126199699 2.0959126430
C 0.3673646790 -0.6636956747 -0.2339286143
O 1.6714156966 -1.0019545673 0.2870429965
C 2.7261561364 -0.1810201801 -0.1128641729
O 3.0975288249 -0.5818382168 -1.4354248328
C 4.2013660637 0.1623292972 -1.9932596633
C 4.4106972075 -0.3638275979 -3.3984531479
C 5.4374169382 0.0091752372 -1.1121059766
C 5.0909919682 0.4396590187 0.3136379622
C 3.9070585518 -0.3901360809 0.8286148058
O 3.5661781365 0.0277113825 2.1455681857
N 6.1694406707 0.4222147559 1.3155723755
C 6.9379218854 -0.8253313785 1.3435642007
C 7.0640261803 1.5729856399 1.1841226585
C -0.2471872335 -1.9837571971 -0.7885420213
C 0.5518127614 -2.4666469288 -1.9975123752
C -0.2886435524 -3.0569344927 0.3099457143
C -0.9194581612 -4.3972532068 -0.1135961893
C -0.5894822304 -5.4851747461 0.9243739048
C -2.4192274099 -4.3018243088 -0.2995731260
O -2.9452642466 -4.5333497145 -1.3848309357
C -3.2970707238 -4.0191468707 0.9178028571
C -4.1739279004 -5.2576240093 1.1672336115
C -4.0786072963 -2.7093493687 0.6817511858
O -4.9511269024 -2.8102458666 -0.4533473075
C -4.9667047396 -2.2324978725 1.8603801633
C -4.2742829896 -2.3802577614 3.2065288982
O -6.1727174005 -3.0019005359 1.9014207200
C -5.3616210748 -0.7540941037 1.5784545734
C -6.4273270993 -0.1726849049 2.4931560864
C -6.8579203558 1.2248998495 2.0500066759
O -4.1558791245 0.0591152367 1.7532582048
C -3.6772301848 0.7597430406 0.7079375644
O -4.1500329383 0.7382996123 -0.4117173935
C -2.4934321857 1.6172626062 1.1107014801
C -2.9409157844 3.0848955209 1.0475263871
O -1.6298131754 -1.7259099633 -1.1121299281
C -1.9181726825 -1.1774006088 -2.3980884075
H -1.6683664965 3.3159413465 -1.1510128741
H -0.3310211527 5.1976233370 -1.5285736189
H -0.0380899283 4.8209211985 0.1633792111
H 3.2855530062 5.8350698225 -1.2777487011
H 1.9696329028 6.3437279939 -0.1930310565
H 1.7610972608 6.4535369825 -1.9462376719
H 2.9996667798 3.0687213481 1.5304028677
H 1.4919326160 4.0102423761 1.5092191356
H 3.0589291611 4.8183089105 1.1903712197
H 1.3221561751 4.4581019357 -3.3189688318
H 3.6443158983 3.4511875604 -2.1193777952
H 1.6322061976 1.7717619861 -1.9031254404
H 0.7474777330 0.8068301884 -3.9962258108
H 2.2262248186 1.7267530126 -4.3478935213
H 0.6366519427 2.4271410320 -4.7255633441
H -1.6572579331 0.9544918026 -0.7739302453
H -1.3202574466 -0.6768247178 1.1217470068
H 0.6387816457 -0.4793628101 2.5795238665
H 1.0766132104 1.0719186892 1.8760560606
H -0.4179228865 0.9179000838 2.8121651937
H 0.4979786803 0.0199371606 -1.0831370588
H 2.4295891782 0.8850492517 -0.1116269992
H 3.9195090772 1.2278211975 -2.0303929740
H 4.7067130427 -1.4174305139 -3.3663281701
H 3.4920699191 -0.2752476117 -3.9843203447
H 5.1997850666 0.2058617084 -3.8977461714
H 6.2490824010 0.6245189275 -1.5176398282
H 5.7599764111 -1.0389518508 -1.1343245859
H 4.7384474304 1.4829062288 0.2764858305
H 4.1504461098 -1.4658379570 0.8115631120
H 4.4222077643 0.2978776405 2.5283561233
H 7.5670943123 -0.9633434205 0.4473974747
H 7.5954383657 -0.8170328042 2.2190368834
H 6.2692634517 -1.6866748825 1.4321083407
H 7.7738609075 1.5756871575 2.0180545858
H 6.4836070565 2.5005777461 1.2221360619
H 7.6461227287 1.5631096478 0.2452146850
H 0.0295511758 -3.2735504745 -2.5174380351
H 1.5254406605 -2.8331829719 -1.6671432513
H 0.7296706792 -1.6537227470 -2.7064075262
H -0.8248995114 -2.6691294463 1.1844344873
H 0.7379974509 -3.2546300300 0.6312796341
H -0.5107798996 -4.7110945260 -1.0784496271
H -0.9200221420 -5.2012781187 1.9283281331
H -1.0553637911 -6.4397620840 0.6620224601
H 0.4943537117 -5.6300674590 0.9556885177
H -2.6511024116 -3.8495773103 1.7831219178
H -3.5488484462 -6.1508952929 1.2618909465
H -4.7557094567 -5.1416065104 2.0825178893
H -4.8659489827 -5.4131763684 0.3355498776
H -3.3298298655 -1.9283723173 0.4952360320
H -4.5119047875 -3.3973894941 -1.0940498242
H -3.3044256274 -1.8758858142 3.2015108851
H -4.8873960984 -1.9439198425 3.9987883731
H -4.1224981597 -3.4358229375 3.4406132759
H -6.3964285085 -3.1890366621 0.9753139842
H -5.6828654115 -0.6741719951 0.5359823542
H -7.2831454250 -0.8535023102 2.4782327814
H -6.0550557925 -0.1411426177 3.5233576478
H -6.0167675550 1.9257457121 2.0697346878
H -7.2582957561 1.2058623501 1.0306829103
H -7.6343962127 1.6186348191 2.7123475702
H -2.2532305875 1.3924059993 2.1518019833
H -3.3769866979 3.3371669477 0.0776713018
H -3.6983597807 3.2678303402 1.8157361938
H -2.0912331890 3.7436115825 1.2426191120
H -1.3235913677 -0.2796177819 -2.6159299661
H -2.9743346618 -0.8985650287 -2.3725587603
H -1.7597259952 -1.9121721593 -3.1970971201
