47
CONF7
C 2.4247577115 -2.4236648068 -3.4955866952
C 3.0964163793 -1.6221696997 -2.4534357075
C 2.6604956088 -0.9713887871 -1.3261751883
C 3.8458724348 -0.3830225731 -0.7775223712
N 4.9011554776 -0.6624509155 -1.5115732657
O 4.4207583574 -1.4376076714 -2.5851916454
C 4.0164089260 0.4053053647 0.4526323579
C 3.4348271722 -0.0252945756 1.6516357435
C 3.6133476304 0.7135909493 2.8155393350
C 4.3700625138 1.8839420108 2.7929260121
C 4.9534528820 2.3127148901 1.6027210252
C 4.7796715441 1.5779002100 0.4344536939
C 1.2511163440 -0.9027494632 -0.9031986347
O 0.4443107428 -1.7982957955 -1.1665605466
N 0.8797199204 0.2169868271 -0.2228173526
C -0.4302462999 0.3592831047 0.3254832628
C -1.7027342551 0.4255576927 -0.5906597774
N -2.2392936682 -0.7220036055 0.1498084571
C -1.1313863457 -0.8589080500 0.9768374765
O -0.8909829502 -1.6147829219 1.8880994307
C -3.6388984111 -0.7153535240 0.5040603201
C -4.0030689822 0.7867562380 0.8067090669
S -2.9377729820 1.7761556064 -0.3834862408
C -5.4673597249 1.1291021924 0.5563964319
C -3.6142498149 1.1043526669 2.2505647057
C -4.5285670984 -1.3365261527 -0.5619113564
O -5.5646259892 -1.9095800526 -0.3065363729
O -4.0528808635 -1.1565617544 -1.8042207753
H 2.4537325666 -3.4857426543 -3.2273589018
H 2.9297848141 -2.2951011648 -4.4556008038
H 1.3781207363 -2.1280322192 -3.5755009742
H 2.8552776873 -0.9432424281 1.6723180643
H 3.1643808645 0.3719672489 3.7426155116
H 4.5048881238 2.4605955966 3.7024806537
H 5.5416899677 3.2245605322 1.5818403863
H 5.2220284616 1.9129244428 -0.4978349682
H 1.5570276007 0.9440015957 -0.0458346099
H -0.4326553650 1.1911765530 1.0358254582
H -1.5178470195 0.2442742776 -1.6517827114
H -3.7865937208 -1.3037515005 1.4149896893
H -6.1014124144 0.5254966164 1.2139294208
H -5.7618754728 0.9491884279 -0.4807442072
H -5.6457743495 2.1828974157 0.7875351769
H -3.7370507914 2.1727575797 2.4448413631
H -4.2616192397 0.5457476806 2.9363222369
H -2.5746837356 0.8372621574 2.4596051896
H -4.6777256776 -1.5582673765 -2.4332121732
