45
CONF1682
N 4.1937219300 0.5262317584 -2.5337786894
C 3.4679531862 0.0429422451 -1.3477960119
C 3.2420639368 1.1158471953 -0.2629917909
C 2.6162842090 0.5655248249 1.0199029151
C 2.2278496694 1.6422314916 2.0387666831
C 1.1471858641 2.6214971509 1.5391115512
N -0.0117706313 2.0020278979 0.8773858371
C -0.7201401541 1.0264242369 1.7095289747
C -1.7891469878 0.3574611763 0.8604406057
O -2.6639901508 1.3121911603 0.2914895925
O -1.1122711586 -0.3834237312 -0.1690768643
C -1.7505839340 -1.6619491991 -0.3919366949
C -1.9510155644 -1.8635793839 -1.8772557479
O -0.7000687449 -1.8164924647 -2.5894146685
C -3.0449636186 -1.6260111784 0.4279908128
O -3.5233062908 -2.9003654190 0.8255117962
C -2.6555664974 -0.6867365721 1.5787306799
O -3.7334793155 -0.1461478101 2.3136241759
C 2.1165386881 -0.4639659653 -1.8239389036
O 1.3707869474 0.2057173876 -2.5225934042
O 1.8153718738 -1.6936395820 -1.3945174735
H 5.0939812200 0.8836992794 -2.2274966326
H 4.0232710187 -0.7978540957 -0.9174682558
H 2.6195103784 1.9065049667 -0.7017998419
H 4.2165925510 1.5655803257 -0.0348729212
H 3.3216850921 -0.1324875235 1.4872710809
H 1.7275032455 -0.0308409324 0.7736280721
H 1.8834288251 1.1497372788 2.9558403331
H 3.1126768180 2.2286970179 2.3187242175
H 0.7835780675 3.2162798745 2.3868024008
H 1.5857482730 3.3272210247 0.8241949646
H 0.3190610086 1.5173117624 0.0464256496
H -1.1976339239 1.5472487803 2.5500958981
H -0.0813570093 0.2303763343 2.1236756663
H -2.1371809926 2.1180643694 0.1559638004
H -1.0902140799 -2.4521246396 0.0007787089
H -2.3841387613 -2.8539255210 -2.0523927418
H -2.6349140453 -1.1010015371 -2.2706434213
H -3.8558161109 -1.1668224291 -0.1518009794
H -2.0287513608 -1.2422195648 2.2888575838
H -4.1434589827 0.5278961016 1.7513866379
H -2.8446217576 -3.3217861822 1.3715511580
H -0.4632326820 -0.8825458665 -2.7194196241
H 3.6930884566 1.3277329317 -2.9098556825
H 0.9045166632 -1.9218325090 -1.7178346974
