29
CONF107
C -2.3278781463 0.7708048405 -1.6698916444
N -1.8967142684 -0.1792767957 -0.6383009971
C -1.8125498208 -1.6003498028 -1.0131341669
C -3.1341323779 -2.3106243828 -0.7110101311
O -3.1095713563 -3.6522517971 -1.1854613688
S -1.0462712075 0.3740661075 0.6694432003
O -1.5644896016 1.6842606228 1.0480520290
O -0.8816965974 -0.7396726517 1.6015395766
C 0.7065644081 0.7075780966 -0.0466085414
C 1.8024824462 0.8346506505 1.0523107535
C 3.1180093053 1.5172919378 0.5473901484
C 4.3559132378 1.2920730381 1.4744419847
F 4.7820717853 0.0263409579 1.4071027910
F 5.3490232575 2.0975596087 1.0723262791
F 4.0467559061 1.5861290995 2.7444967201
F 2.9123693687 2.8476134989 0.4517348881
F 3.4305657584 1.0279009931 -0.6775034484
F 2.1013969288 -0.4045108209 1.5021832040
F 1.3049638187 1.5703289826 2.0705180229
F 0.6409650356 1.8440009195 -0.7738476659
F 1.0069978458 -0.3184882723 -0.8752170986
H -1.6008467516 0.8335392019 -2.4901927516
H -3.2888596910 0.4354692210 -2.0712631377
H -2.4670499363 1.7575431187 -1.2263707876
H -1.0045555451 -2.0842805603 -0.4572515541
H -1.5772692338 -1.6756743427 -2.0821846338
H -3.3374566835 -2.2538452810 0.3676535268
H -3.9593584062 -1.8168559136 -1.2345795624
H -2.5493803940 -4.1713202641 -0.5980758266
