59
CONF5
C 8.1122448548 -2.1348720499 0.2126762447
C 6.6521482978 -2.4593106738 0.5232986138
C 5.6832780333 -1.4371592005 -0.0702898477
C 4.2199392136 -1.7460936696 0.2429071928
C 3.2651942072 -0.7183052121 -0.3624769856
C 1.7974944288 -0.9527032350 -0.0096303221
C 0.9095945728 0.1106084518 -0.5791828255
C 0.2392495597 0.9885694764 0.1669787655
C -0.5896481590 2.1227505316 -0.3498854594
C 0.0442966534 3.4882113640 0.0301532426
C -0.7924605096 3.9840235645 1.2093775026
C -2.2174300756 3.5848072080 0.8221328758
C -2.0258985291 2.1512644817 0.2719788084
C -3.1421687525 1.7054677825 -0.6783722247
C -3.0334808434 0.2647451086 -1.0679769515
C -3.9771694446 -0.6592219424 -0.8733059447
C -3.8377053214 -2.0992816509 -1.2596179981
C -3.9835642006 -3.0700343468 -0.0704804513
C -3.2076427977 -2.6691975847 1.1859687466
C -1.7273456044 -2.4136582669 1.0456303416
O -1.0871003783 -1.7618949993 1.8556783862
O -1.1723099335 -2.9930014649 -0.0232750888
O -2.7854026505 4.4917356215 -0.1338440856
O -0.1108812174 4.3549897670 -1.1214325638
O 1.3807893290 -2.2778262025 -0.4600399181
H 8.2845263871 -2.1101383073 -0.8691477032
H 8.7895954448 -2.8785819672 0.6442516926
H 8.3878773532 -1.1542298204 0.6163618734
H 6.5065302532 -2.5037519157 1.6107992198
H 6.4046267266 -3.4569578478 0.1370708201
H 5.8217948732 -1.3970199230 -1.1601063675
H 5.9339812949 -0.4367990075 0.3101422034
H 4.0770977740 -1.7726393053 1.3322061215
H 3.9705538299 -2.7467256181 -0.1299261913
H 3.3678877229 -0.7027291059 -1.4577527941
H 3.5310172320 0.2867194931 -0.0102794914
H 1.6777148852 -0.9882921876 1.0784293756
H 0.8628804793 0.1667379901 -1.6690251522
H 0.3034881911 0.9062726301 1.2542044271
H -0.6368185006 2.0660040673 -1.4435980410
H 1.1112337250 3.3922968487 0.2679104982
H -0.4948138890 3.4358090730 2.1122204493
H -0.6766578495 5.0556867144 1.4012611929
H -2.9073468259 3.5879551294 1.6719654715
H -2.0303544114 1.4816332229 1.1436011664
H -3.0988566051 2.3381595139 -1.5754085824
H -4.1152678741 1.8892042553 -0.2061381384
H -2.0997305809 -0.0393805900 -1.5456766483
H -4.9114765244 -0.3671910553 -0.3873681953
H -4.6063944708 -2.3626623558 -1.9990574062
H -2.8662382388 -2.2455257813 -1.7413553294
H -5.0407838042 -3.1348052466 0.2135403218
H -3.6840461519 -4.0721895181 -0.3948657595
H -3.3059108394 -3.4575195167 1.9447863928
H -3.6284411471 -1.7649377600 1.6362538215
H -0.2122046132 -2.7187166597 -0.0909910105
H -2.1073186134 4.6281029653 -0.8156630196
H 0.2695691152 5.2135686367 -0.8918445027
H 1.5245491013 -2.3248339144 -1.4165293414
