61
CONF7
C -0.3964099357 -1.6987518421 -3.3665335260
O -0.3059743488 -2.1787254548 -2.0131536985
C -1.3475841417 -1.9575668905 -1.1663171253
C -2.4683519486 -1.2150416851 -1.5493554150
C -3.5173946099 -1.0040662748 -0.6644036401
C -3.4402457111 -1.5395705173 0.6130960321
Cl -4.7516237710 -1.2551371136 1.7503710243
C -2.3414709023 -2.2787145305 1.0100571294
C -1.2756906311 -2.5067549113 0.1357143747
C -0.1469488091 -3.3226288800 0.7161542696
O -0.2043868238 -3.7313338340 1.8795411334
N 0.9152488054 -3.5848323991 -0.0794012572
C 2.1206081623 -4.2141546911 0.4385098400
C 2.8608874504 -3.3517695838 1.4878248441
C 2.9576427901 -1.9168483583 1.0546234147
C 2.1393795719 -0.9489110758 1.6425710429
C 2.1638044612 0.3713261164 1.2092419703
C 3.0120396771 0.7139748008 0.1609295828
C 3.8448705110 -0.2261546809 -0.4433133988
C 3.8138310328 -1.5360140070 0.0145041912
S 3.0171844988 2.3915615159 -0.4548736273
O 4.3062761625 2.6613921974 -1.0970817884
O 2.4836382207 3.2707633129 0.5967385866
N 1.8873544283 2.4260807435 -1.7397044681
C 0.5017470970 2.1002748930 -1.6351238351
O -0.0529895894 1.5923131922 -2.6066157667
N -0.0844796389 2.4158318164 -0.4667648582
C -1.5091882935 2.1816827599 -0.2107569060
C -2.3160548345 3.4784018271 -0.3714826886
C -1.9973241263 4.4905615774 0.7322994726
C -2.2115352376 3.8793656086 2.1198382081
C -1.3838978285 2.6026540343 2.2962090266
C -1.6990137750 1.5909731677 1.1908482251
H -1.2563406616 -2.1488177232 -3.8746505526
H -0.4581998199 -0.6069624460 -3.3850045278
H 0.5262974602 -2.0255013445 -3.8466011941
H -2.5293913449 -0.7832755672 -2.5398670882
H -4.3786077392 -0.4209088014 -0.9706754476
H -2.2758448267 -2.6997600205 2.0061874485
H 0.9427329356 -3.1503579671 -0.9897127070
H 2.7736719911 -4.3969787236 -0.4197465518
H 1.8710001389 -5.1805753580 0.8895648331
H 2.3290696934 -3.4124946826 2.4393215383
H 3.8596711445 -3.7808955162 1.6267325645
H 1.4741187826 -1.2337271075 2.4522527391
H 1.5416137063 1.1206276906 1.6841892250
H 4.5145128238 0.0686570467 -1.2438986921
H 4.4670557240 -2.2747036481 -0.4416848144
H 2.2876030849 2.0593733216 -2.5985894488
H 0.4504176175 2.9570814557 0.1994165185
H -1.8343773083 1.4546567098 -0.9590897731
H -3.3816840594 3.2165570819 -0.3268136447
H -2.1261869468 3.9036892980 -1.3634740848
H -0.9555561713 4.8287999344 0.6388789887
H -2.6217130556 5.3822614507 0.6076184425
H -3.2758100582 3.6345053981 2.2447166523
H -1.9572978442 4.6069704392 2.8988111354
H -0.3137567879 2.8582473252 2.2899201159
H -1.5814442664 2.1503977654 3.2744619735
H -1.0911595528 0.6839727761 1.2919497990
H -2.7482646703 1.2828241777 1.2796679770
