45
CONF196
C 4.8100986849 -1.8779266195 1.0893935965
C 4.1185183617 -2.3565409029 -0.1878320771
C 2.6102218269 -2.0952878809 -0.2107302044
C 2.2626161774 -0.6119597400 -0.1711971776
N 0.8190519571 -0.4380079514 -0.2926986561
C 0.2305293199 0.7928302245 -0.3141618063
C -1.1460008041 0.9054331364 -0.6221698437
C -1.7688836484 2.1474443477 -0.6515354288
C -1.0776016106 3.3169335548 -0.3672974723
C 0.2745588150 3.2147898603 -0.0376590431
C 0.9222579641 1.9784313969 -0.0152899454
C 0.9999077631 4.4733179053 0.2684072837
O 0.4935231958 5.5786514254 0.2455182015
O 2.2989366166 4.2711196739 0.5753760703
S -3.5278180519 2.2432324305 -1.0374860400
O -4.2513405161 1.3478516088 -0.1238956479
O -3.8753619470 3.6690082134 -1.1033909120
N -3.7564827813 1.6280446393 -2.5821228640
O -1.8484381806 -0.2184940687 -0.9991859427
C -2.1874504986 -1.1502676124 -0.0168220103
C -2.6339353556 -2.3810533298 -0.4848519385
C -3.0106353326 -3.3541005340 0.4351265571
C -2.9351647447 -3.0997733825 1.8037378937
C -2.4845330084 -1.8593976294 2.2486158124
C -2.1093442775 -0.8708493036 1.3417885856
H 4.3247111321 -2.3010631998 1.9761736824
H 5.8604216698 -2.1846918378 1.1015148386
H 4.7857910636 -0.7875832267 1.1822885159
H 4.2797696610 -3.4345463952 -0.3028397516
H 4.5818580623 -1.8791817442 -1.0610194473
H 2.1337688189 -2.5982782389 0.6410639625
H 2.1842939997 -2.5328448906 -1.1234572481
H 2.7942002742 -0.0812316000 -0.9793299722
H 2.5909477833 -0.1734331787 0.7789668153
H 0.3285647887 -1.1695144070 -0.7874793621
H -1.5727500746 4.2786462739 -0.3926405304
H 1.9767813064 1.9351467883 0.2209969119
H 2.6985046724 5.1385557199 0.7548611011
H -3.2464515971 2.1776438346 -3.2716726681
H -3.4773987917 0.6490777549 -2.6263793796
H -2.6832416570 -2.5619199121 -1.5535642631
H -3.3622981503 -4.3164791908 0.0769695018
H -3.2276327394 -3.8622814908 2.5177458107
H -2.4266788816 -1.6495157732 3.3119978139
H -1.7703909694 0.1000654424 1.6870276984
