53
CONF19
C -3.9408819188 0.2881469776 -1.9278771991
O -3.1846182807 0.8024983459 -0.8037982885
C -2.4010352371 -0.0837371565 -0.1889624744
C -1.6653700116 0.2512889022 0.8949694481
C -1.7343879173 1.6057577738 1.5033080005
C -2.8476672458 1.9517655641 2.2721379158
C -2.9461571201 3.2075580787 2.8662258744
C -1.9271850337 4.1387183760 2.6918843197
C -0.8201226795 3.8097679210 1.9139249332
C -0.7112159642 2.5534606984 1.3175007418
C 0.4863150563 2.2311458717 0.4745898492
O 0.0472945022 2.1167166068 -0.9202232579
C 0.2804348605 0.9892646747 -1.5967804614
N 1.0572935819 0.0434474606 -1.0954537537
C 1.1987933550 -1.0720646943 -1.8254460734
N 0.6261563392 -1.3200659492 -3.0160965601
C -0.1327117765 -0.3274263811 -3.4885672244
C -0.3517278498 0.8714184059 -2.8493192971
C -0.7675951293 -0.6225720347 -4.8325118176
F -1.5288207604 -1.7397690050 -4.7839521779
F -1.5574533119 0.3859475171 -5.2537108351
F 0.1735976244 -0.8238824718 -5.7843472828
N 1.9743270153 -2.0900310802 -1.3354695712
C 2.7176053525 -2.1162174625 -0.1555102699
C 2.8440549592 -3.3163732264 0.5640949364
C 3.6172238082 -3.4111032387 1.7137368793
C 4.2647285007 -2.2708915115 2.1680654786
C 4.1676349379 -1.0632639876 1.4878232212
C 3.4072539791 -0.9971345416 0.3296747062
Cl 5.2212131445 -2.3654018273 3.6372441883
Cl 2.0002821082 -4.7525052880 0.0164607194
C -0.8174594373 -0.8033276145 1.4613742271
O -0.7180380248 -1.9490592521 1.0454413081
O -0.1397276953 -0.3567628119 2.5452560777
C 0.7153020175 -1.3290358836 3.1879514296
H -3.2693043129 -0.1952585650 -2.6436010031
H -4.6951902076 -0.4200935064 -1.5735891198
H -4.4202170996 1.1517744608 -2.3872072031
H -2.3563264585 -1.0886623298 -0.6082924676
H -3.6382274434 1.2201729669 2.4112929127
H -3.8172014008 3.4548464885 3.4650035877
H -1.9955851690 5.1195644858 3.1515052876
H -0.0274378610 4.5374326802 1.7629676716
H 0.9659770490 1.2997238584 0.7784267573
H 1.2170688657 3.0425689554 0.5014075880
H -0.9791317307 1.6577366811 -3.2445999075
H 1.8962112242 -2.9552181162 -1.8524330738
H 3.6917075492 -4.3506462761 2.2474584206
H 4.6901234567 -0.1837398995 1.8451999125
H 3.3517261428 -0.0647643947 -0.2156505919
H 1.4364150529 -1.7313587278 2.4734243388
H 0.1160237943 -2.1440102472 3.6023782834
H 1.2260320856 -0.7863459906 3.9829165174
