47
CONF30
C 5.7329372923 2.1076024521 -1.2235631968
C 4.2682275781 1.7520880961 -1.4613405553
C 3.7181641338 0.7625841622 -0.4868404548
N 4.4343448723 0.2634752543 0.5287033547
N 3.6227642734 -0.5683225084 1.2007456870
C 4.1383149670 -1.2769962071 2.3672801987
C 2.3818603413 -0.6476078505 0.6445452488
C 1.2973714122 -1.4559063208 1.2507545059
O 1.2345903651 -1.6218917457 2.4733129007
N 0.4137458708 -1.9760010409 0.3696111312
C -0.7958211923 -2.6831451484 0.7701189139
C -2.0477459087 -1.9890950975 0.2847899495
C -3.0688426318 -2.7123230192 -0.3326358411
C -4.2346498448 -2.0805940754 -0.7511690411
C -4.4247309742 -0.7033202163 -0.5767692471
C -3.3921420574 0.0125813950 0.0387095547
C -2.2249783038 -0.6182821031 0.4632111295
C -5.7202867134 -0.0470678934 -1.0591739205
C -5.8606259891 -0.2559052126 -2.5794417388
C -5.7516061829 1.4595920301 -0.7763421229
C -6.9186424123 -0.6982947899 -0.3421726166
C 2.4289861521 0.2088899833 -0.4541584971
Cl 1.1505393227 0.5981338524 -1.5581894473
H 5.8770914743 2.5445911688 -0.2315958597
H 6.3706649639 1.2221609036 -1.2969950220
H 6.0658471574 2.8333246591 -1.9702595359
H 3.6496271924 2.6582156635 -1.4206014332
H 4.1365514548 1.3506126435 -2.4743148184
H 3.7761069752 -0.8148564674 3.2889127479
H 5.2262564539 -1.2190292000 2.3225803622
H 3.8188222617 -2.3198617872 2.3416231448
H 0.5558980512 -1.8166720525 -0.6171789652
H -0.7844544366 -2.7372677984 1.8633314084
H -2.9508370989 -3.7816279568 -0.4893575643
H -5.0050518257 -2.6775051894 -1.2295352101
H -3.4861920738 1.0803760868 0.1983222940
H -1.4418224364 -0.0308429949 0.9357704797
H -6.7829170857 0.2152984890 -2.9369482561
H -5.9006835951 -1.3179690028 -2.8387078416
H -5.0149803042 0.1946442182 -3.1099235076
H -6.6982906062 1.8730490259 -1.1381654026
H -5.6812256235 1.6717830328 0.2956704008
H -4.9386857164 1.9843676207 -1.2890350599
H -6.9801310877 -1.7702486338 -0.5514217140
H -7.8516893356 -0.2334479567 -0.6793265728
H -6.8384036176 -0.5647092267 0.7418751800
H -0.7688256148 -3.7095944986 0.3863954479
