22
CONF73
C 2.2853525853 -0.1064811858 -0.1045069694
C 1.0788517071 -0.8729817626 -0.6206774252
C -0.1905559571 -0.6509551579 0.2123702207
C -0.6957064512 0.7872479701 0.1830360081
C -1.8996702419 0.9825633380 1.0888763635
O -2.2975907611 2.3559271904 0.9460090121
O -1.0353609695 1.0897308996 -1.1771949956
O -1.2053798219 -1.5588394774 -0.2455712861
O 1.4396731150 -2.2617202843 -0.5626153586
O 3.4579677033 -0.4017789931 -0.8687423772
H 2.4414994376 -0.3460476037 0.9593061270
H 2.1203312088 0.9697900827 -0.1998983444
H 0.8816065599 -0.5841969480 -1.6651191246
H 0.0216652194 -0.9324962178 1.2513959018
H 0.1044391637 1.4596173388 0.5310772432
H -2.7112094277 0.3104408958 0.7851728280
H -1.6155879266 0.7601021833 2.1275473482
H -3.2158508286 2.4340069370 1.2292074324
H -1.6034763734 1.8731271937 -1.1475189231
H -1.5573515084 -1.1823333631 -1.0666434725
H 0.6417257946 -2.7613146756 -0.7867596824
H 3.5546285770 -1.3634081750 -0.8687505365
