52
CONF109
C 2.1688690166 2.7450464460 0.2848132905
C 2.2230208148 1.2903072719 -0.1224453444
C 3.5211751555 0.9111293310 -0.8403654703
C 3.4597359485 -0.5292596077 -1.3614710403
C 2.2192040016 -0.7246714569 -2.2395173379
C 0.9562566301 -0.1905845870 -1.5564033213
O 1.0889057692 1.0803437396 -1.0161171833
O 0.6327812415 -1.2105253305 -0.5541314517
C -0.1677089212 -0.8600370278 0.4998775024
C -1.4545452661 -0.4088961570 0.3668839034
O -2.1665818414 -0.0066139316 1.4576298406
C -1.6469876593 -0.0881531836 2.7169973605
C -2.4481834169 0.3636407983 3.7506246279
C -1.9395281012 0.2711067225 5.0467515908
C -0.6672015333 -0.2537270794 5.3095265107
C 0.1160735729 -0.6978082468 4.2562414727
C -0.3677186192 -0.6281154767 2.9216095267
C 0.4310440785 -1.0333620837 1.8007494373
O 1.6031799776 -1.4915297838 1.9317654384
O 1.3422505576 -1.1915023594 4.4999184506
O -2.7407948087 0.7149549537 6.0440907861
C -2.2194402442 -0.2778230181 -0.8656232753
C -2.0705298664 -1.2225843373 -1.8953989317
C -2.8051751335 -1.0981812559 -3.0605330106
C -3.7045788795 -0.0272154459 -3.2197601855
C -3.8601868220 0.9004319939 -2.1951877972
C -3.1288117729 0.7766986912 -1.0221506997
O -4.4252735474 0.1124536710 -4.3600597114
O -2.7333063377 -1.9644928762 -4.1124147544
O 2.4535899692 0.0119419844 -3.4394257203
O 3.5360286295 -1.4647435464 -0.2857238233
O 4.6396012110 1.0722770371 0.0300954176
H 2.9812459895 2.9646195220 0.9811279165
H 2.2726228460 3.3900387442 -0.5938878977
H 1.2174596378 2.9646612195 0.7777930556
H 2.1049322529 0.6518826851 0.7637116189
H 3.6679232299 1.5929150705 -1.6861453097
H 4.3442975962 -0.7174716212 -1.9804806831
H 2.0830589799 -1.7952902412 -2.4451816535
H 0.1307974733 -0.1189416588 -2.2743737475
H -3.4345354093 0.7690974165 3.5611275540
H -0.2888778645 -0.3133089763 6.3253466762
H 1.7268842484 -1.4232772387 3.6094246972
H -2.2993007580 0.6027408309 6.8978790305
H -1.3924053042 -2.0626212394 -1.7796068970
H -4.5560126883 1.7214504008 -2.3341710053
H -3.2501036122 1.5103737160 -0.2338300601
H -4.1999922027 -0.6093813536 -4.9667008834
H -2.0737058405 -2.6495256383 -3.9380677157
H 1.7436683747 -0.1926074332 -4.0620982475
H 2.7147520218 -1.4447108802 0.2437108153
H 4.6621266335 0.2788501175 0.5875546366
