49
CONF5
C -3.4041727285 -2.4008662869 0.3333071274
C -2.5487144421 -1.2080663259 0.0205061668
C -3.0842125685 0.0002457078 -0.2130613086
C -2.2963363130 1.2062639418 -0.5616967155
C -1.6147390983 2.0240291676 0.5620996343
C -2.7442513993 2.6031907169 -0.2949300388
C -4.0431192482 2.8222073694 0.4511011717
C -2.4443183122 3.6767255803 -1.3163142845
C -0.1952866427 2.3254161013 0.3750279841
O 0.3836711730 2.5368487630 -0.6737664953
O 0.4588461412 2.2719553336 1.5783677330
C 1.9025517020 2.2425768623 1.5189781447
N 2.3670726741 0.9791083718 1.0183276541
C 2.9724165727 0.7598647072 -0.2334554180
O 3.3493464429 1.6250756565 -0.9959917847
C 3.0877676212 -0.7171816658 -0.3861558160
C 2.5872780671 -1.3078219554 0.7116854120
C 2.1156550017 -0.2518824342 1.6466097010
O 1.6077344616 -0.3829757675 2.7433329395
C 2.5103213267 -2.7739276826 0.9309120789
C 2.7423422879 -3.4982642831 -0.4037495923
C 3.9307365287 -2.9012541810 -1.1690959692
C 3.6831126733 -1.4314805724 -1.5431711775
C -1.0697139022 -1.4659968518 0.0081344093
H -3.1355861179 -2.8200709079 1.3112253518
H -4.4673045895 -2.1470060534 0.3409057741
H -3.2396586823 -3.1978019647 -0.4029808840
H -4.1667702290 0.1092333549 -0.1645032566
H -1.6393800530 1.1137196240 -1.4259942771
H -1.8917540142 1.7513262860 1.5744009456
H -4.8859254919 2.7902292630 -0.2487814148
H -4.2083903538 2.0651100175 1.2218914539
H -4.0381327022 3.8064049233 0.9310615885
H -2.3488126666 4.6535835650 -0.8293328035
H -1.5261145182 3.4722375413 -1.8683092003
H -3.2747112402 3.7347779729 -2.0287586495
H 2.2903334320 3.0326955974 0.8719440177
H 2.2156892215 2.3852942971 2.5541601141
H 1.5386668593 -3.0376119255 1.3650148965
H 3.2662882444 -3.0703273411 1.6719878835
H 2.9066361736 -4.5642789752 -0.2210000913
H 1.8369160776 -3.4079691617 -1.0176424622
H 4.1279945492 -3.4825899305 -2.0746165486
H 4.8289903885 -2.9633591990 -0.5415599122
H 4.6103700654 -0.9354725992 -1.8534622737
H 2.9985182759 -1.3570175269 -2.4003305573
H -0.7499481294 -1.8651094502 0.9795631562
H -0.8182259262 -2.2303963736 -0.7382147753
H -0.4836764864 -0.5693916031 -0.2049920414
