53
CONF5
C -3.9894696637 -2.9169226366 0.7972937419
C -3.1053380918 -1.8004656022 1.3645390821
C -3.2504043872 -1.7936882904 2.8980186940
C -3.6088553663 -0.4462387790 0.8435524794
O -3.4643651846 -0.4083216458 -0.5762470877
C -3.9288220891 0.8117112778 -1.1425128699
C -3.0480499850 2.0021667428 -0.8314703432
C -1.6629985885 1.8508566372 -0.7444346694
C -0.8719874291 2.9650817798 -0.5008670070
C -1.4179421744 4.2340726550 -0.3502641203
C -2.7993849716 4.3794173047 -0.4397421080
C -3.6096115213 3.2697475721 -0.6689615853
O 0.5132463013 2.8204226000 -0.4636216297
C 1.0939339276 2.4656553476 0.7346720379
C 2.4694698384 2.2307913478 0.6975573288
C 3.1304934234 1.8595686267 1.8615530070
C 2.4323660544 1.7247458688 3.0626679107
C 1.0629245804 1.9724382506 3.0861183536
C 0.3827166951 2.3454445929 1.9275771570
C -1.6336766244 -1.9559302665 0.9801618239
C -0.6934389430 -1.0318294294 1.4553427896
C 0.6447107190 -1.1045334147 1.0942549703
C 1.0482141147 -2.1238154402 0.2471944068
C 0.1646632023 -3.0809726653 -0.2197947051
C -1.1767413922 -2.9807595331 0.1482613001
O 2.4258853261 -2.1695706665 -0.0705163341
C 2.8040277488 -2.0151106430 -1.3493086318
F 2.4639097226 -3.0629166389 -2.1390954964
F 4.1387360034 -1.9129518939 -1.3688524253
Br 2.0366318040 -0.3778618669 -2.2200766918
H -3.6824307967 -3.8945767335 1.1822011753
H -3.9617415818 -2.9446171431 -0.2947585704
H -5.0255711559 -2.7439820439 1.1050436527
H -2.8911733697 -2.7411846151 3.3110658350
H -4.3032214391 -1.6747782830 3.1751667259
H -2.6822455896 -0.9813929515 3.3598172481
H -4.6706531643 -0.3224159849 1.1138732122
H -3.0414209984 0.3753377849 1.3063279819
H -4.9594198984 1.0220856884 -0.8174398377
H -3.9460622761 0.6438466870 -2.2261380364
H -1.2029499318 0.8733387928 -0.8552686910
H -0.7676065537 5.0815491900 -0.1603291127
H -3.2453898602 5.3616909644 -0.3197403903
H -4.6880570361 3.3889981724 -0.7249910633
H 2.9990321016 2.3316655722 -0.2436920789
H 4.1990139446 1.6703527714 1.8279043110
H 2.9519237106 1.4302803875 3.9682980356
H 0.5071818069 1.8725108098 4.0135847194
H -0.6857509207 2.5277313163 1.9534683563
H -1.0024640349 -0.2208138973 2.1061855045
H 1.3656445442 -0.3760019548 1.4496927008
H 0.5013731050 -3.8890396440 -0.8577544002
H -1.8639917560 -3.7258232824 -0.2333128203
