76
CONF143
C -0.5671259426 -2.0174274532 -1.0765507558
C -1.8287644106 -1.2793094975 -0.6565999106
C -3.0529791363 -1.8741670734 -1.2928097566
C -4.2897853249 -1.7319427809 -0.7994387214
C -5.4678129638 -2.3537971880 -1.4961894807
O -6.1440283652 -3.3228624457 -0.6662050846
C -4.6051370685 -0.9485004410 0.4566918469
C -3.8393994929 0.3725437510 0.6586108189
O -2.9986611720 0.2050934463 1.8233254832
C -4.7549034323 1.5790948989 1.0005884740
O -5.7278144109 1.5269388989 1.7387714707
C -4.2176863728 2.7651380739 0.3269224711
C -4.7594186092 4.1323533866 0.5602642125
C -3.2625443761 2.3689594923 -0.5401326939
C -3.0767573215 0.8804505847 -0.5826774756
C -1.6953987214 0.2636493708 -0.8809058410
O -1.4755924654 0.5856281199 -2.2575491711
C -0.5068595819 0.7542883718 -0.0094099928
C -0.3205402405 2.2714535146 0.0289250453
C 0.8097884950 0.1256221445 -0.5059766764
O 1.7891055174 0.2661712449 0.5638707586
C 3.0128973143 0.7633752358 0.2514018582
O 3.3008121473 1.1293640258 -0.8862148593
C 3.9099398532 0.8096678024 1.4075653320
C 3.4744946703 0.3320594210 2.6571683032
C 4.2892297757 0.3535100705 3.7730182989
C 5.5854316495 0.8691335311 3.6505138580
C 6.0528538096 1.3483018116 2.4427604947
C 5.2389183817 1.3354111253 1.2824719974
N 5.7180095661 1.8079147635 0.1084118033
C 7.0492836446 2.3587344970 -0.0628763243
C 0.7611289816 -1.3153473431 -0.9446265131
O 1.8002103763 -1.6097033129 -1.9007484085
C 1.6708985329 -1.1604250822 -3.1618076716
C 2.8641177430 -1.5088641577 -3.9913232544
O 0.7066708678 -0.5296397230 -3.5631973433
C 0.4552675507 -2.4925410034 -0.0545086816
C 0.2374414515 -2.3110837672 1.4316504089
C 1.1620265117 -3.7977361127 -0.3696122099
H -0.6625779665 -2.6524360659 -1.9543063518
H -1.9480015791 -1.3858251821 0.4273043442
H -2.9177355278 -2.4442907538 -2.2109158407
H -6.1780405806 -1.5721958519 -1.8055855163
H -5.1368186669 -2.8940062978 -2.3875088461
H -6.6925038695 -2.8450779557 -0.0316869649
H -5.6784354072 -0.7245254885 0.4760715223
H -4.4209134788 -1.5735296685 1.3396689387
H -2.6056227903 1.0608955851 2.0499366373
H -4.2574919324 4.8680766481 -0.0718149547
H -5.8342629513 4.1605950800 0.3498019860
H -4.6331524945 4.4230427828 1.6090697208
H -2.7484541235 3.0345338590 -1.2258115241
H -3.6628115152 0.5485911123 -1.4526985388
H -0.6905611737 0.1083234343 -2.5914901968
H -0.6870489896 0.4037753751 1.0092713303
H 0.6264000608 2.5203707648 0.5181423296
H -1.1169258201 2.7577732029 0.5978740933
H -0.3034952736 2.6889026314 -0.9827487494
H 1.1644729744 0.7152061167 -1.3562930414
H 2.4694304688 -0.0645565153 2.7346957673
H 3.9296350100 -0.0220991958 4.7244309368
H 6.2416967743 0.8953945307 4.5157428823
H 7.0610801487 1.7394150509 2.3803697413
H 5.0922868181 1.7690161513 -0.6831923930
H 7.2120288947 3.2380356072 0.5741555142
H 7.8296802156 1.6208871528 0.1652951334
H 7.1594536536 2.6639603464 -1.1047238479
H 2.6159235138 -1.4239914355 -5.0488079057
H 3.6642966530 -0.7982283970 -3.7546693850
H 3.2260397336 -2.5110164382 -3.7535657755
H 1.1961965959 -2.3974745223 1.9532442926
H -0.4235615558 -3.1025408982 1.8024040548
H -0.1989682044 -1.3518278809 1.7066617591
H 0.6063746313 -4.6216144265 0.0906079961
H 1.2295553915 -3.9859980279 -1.4423355077
H 2.1755154447 -3.7970702504 0.0463006789
