26
CONF10
C 2.0382667415 1.5137552108 -0.8741795205
C 2.1797358100 0.0180666076 -0.8625790394
C 1.6366251832 -0.8022518016 0.0478355222
C 0.7654184838 -0.4344077656 1.2226139786
C -0.5915494182 -1.0683443954 1.0832091529
C -1.7788074167 -0.4666476906 0.8528008601
C -3.0310473795 -1.2944925816 0.7245743176
C -1.9076110047 0.9794685387 0.7101711803
C -3.0534869392 1.6384797134 0.4786772858
C 3.0085850055 -0.5292565766 -1.9933277243
H 1.4464692236 1.9037039301 -0.0450709350
H 3.0279530494 1.9864113280 -0.8405318818
H 1.5714538312 1.8394926557 -1.8124482313
H 1.8121160803 -1.8726645781 -0.0681096584
H 1.2298855888 -0.8303818943 2.1379792805
H 0.7004216761 0.6463358545 1.3490099474
H -0.5886364354 -2.1566601686 1.1507474878
H -2.8097654585 -2.3570131165 0.8463816349
H -3.5017589791 -1.1483780363 -0.2547841358
H -3.7722232039 -1.0069405673 1.4793850750
H -0.9948419120 1.5640950203 0.7906311158
H -4.0080630103 1.1302390342 0.3826487340
H -3.0588190747 2.7191866655 0.3781375935
H 2.5720762065 -0.2489343939 -2.9606184395
H 4.0200900011 -0.1042034042 -1.9729923736
H 3.0875125522 -1.6186574876 -1.9501611210
