52
CONF28
O 4.0809386421 -1.4358400934 -2.3623762861
C 2.7541225765 -1.4099333721 -1.8148487105
C 2.7749284424 -0.5740580957 -0.5435047945
C 3.9158645851 -0.6880549288 0.2806060141
C 3.9613653088 0.0697749193 1.4227572682
C 2.9250554515 0.9263479138 1.7705474145
C 1.7981713555 1.0444710889 0.9973561606
C 1.7163844115 0.2757987897 -0.1837315583
C 0.4440848559 0.4393483427 -1.0253382194
C -0.8065492362 0.4609470880 -0.1658875271
C -1.6194315468 1.5908596123 -0.1545511559
C -2.7673216970 1.6126695003 0.6456203658
O -3.6299418195 2.6625672840 0.7275954854
C -3.3329104672 3.8213869354 -0.0635005932
C -3.0915554102 0.5053119691 1.4401220874
O -4.1928819084 0.5417548508 2.2626764878
C -5.3894215480 0.0566068918 1.6186093327
C -2.2643665881 -0.6289900330 1.4196894766
O -2.6633185318 -1.6542959612 2.2209652856
C -1.8486908088 -2.8342660543 2.2314736385
C -1.1190856598 -0.6472093530 0.6227402253
C 0.4117835583 -0.6605999871 -2.0787882318
C -0.5430861167 -0.5231720128 -3.2428731122
O 0.0165886192 -1.1090044940 -4.3361614596
C 1.3528834946 -1.6189546857 -4.0080273065
C 1.7530808085 -0.8137348680 -2.7801769877
O -1.6385666505 -0.0162256082 -3.2930367909
O 3.2154582456 1.5642020494 2.9480014524
C 4.5283302629 1.1039432517 3.3399181108
O 4.9540248487 0.1238784777 2.3673313170
H 4.1331959748 -2.1826701111 -2.9720769072
H 2.4448967298 -2.4397423241 -1.5671274663
H 4.7301066797 -1.3467531981 0.0045089499
H 0.9851324846 1.7021057486 1.2857728826
H 0.5079599452 1.4035804641 -1.5483996748
H -1.3575382446 2.4391966898 -0.7749279432
H -3.3281084618 3.5774948787 -1.1321659265
H -4.1319571458 4.5325771489 0.1473789986
H -2.3676764045 4.2549780800 0.2224520550
H -5.2608733103 -0.9859011033 1.3048491538
H -6.1891194455 0.1228937567 2.3588491691
H -5.6364137062 0.6774957889 0.7495340856
H -0.8371201269 -2.6106398154 2.5896869327
H -2.3383122445 -3.5223300795 2.9211227553
H -1.7973555404 -3.2855591574 1.2337357398
H -0.4594240441 -1.5068548202 0.6237876548
H 0.1583636384 -1.6214156102 -1.5994145482
H 1.9799764882 -1.4621204095 -4.8861552708
H 1.2647405970 -2.6898670006 -3.7887162862
H 2.1123341678 0.1770525894 -3.0921599895
H 5.2251880780 1.9495403692 3.3308149422
H 4.4660674869 0.6314096980 4.3254430081
