53
CONF1
C 0.4302225994 -0.7571279360 -0.7430461239
C -0.5174630686 -0.2559274746 -1.8400786739
C -1.7745734780 0.4111961916 -1.3354806789
C -2.1393370047 0.3908552450 0.0206557473
C -3.3249789320 1.0192767558 0.4089815277
C -4.1474315023 1.6443650822 -0.5201290873
O -5.2939913648 2.2301495130 -0.0486573054
C -3.7955094395 1.6586506984 -1.8680382726
C -2.6140950712 1.0431633328 -2.2546143659
C -1.2084398227 -0.2112521331 1.0719356907
C -1.9526500268 -0.7992084889 2.2829622269
C -2.8276572140 -1.9950527508 1.9053058250
C -1.9871275297 -3.0908619370 1.2449347730
C -1.2229027736 -2.5360020807 0.0405918166
C -0.3469915754 -1.3487384094 0.4397157647
O 0.6021279462 -1.8429163155 1.3919298555
C -0.2499354610 0.9059880046 1.5412834829
C 0.6749622201 1.3826156229 0.4264081015
N 1.3673824289 0.2426577761 -0.1911175825
C 2.4038006970 0.6591783545 -1.1367353640
C 3.6758174438 1.1014004242 -0.4378118771
C 4.9501669380 1.2887443113 -1.3038777644
C 5.7686995118 0.6513096123 -0.1519356000
C 4.4491407980 0.0498218511 0.3962949011
H 1.0543323117 -1.5599942337 -1.1588332913
H 0.0241604856 0.4270871138 -2.5072250713
H -0.7997286386 -1.1140883238 -2.4652000094
H -3.6378493744 1.0337071979 1.4461816727
H -5.7693530030 2.6252353756 -0.7877821007
H -4.4324253790 2.1440660557 -2.6034018024
H -2.3315794597 1.0537541436 -3.3045665748
H -1.1897477898 -1.1263690507 2.9982491006
H -2.5382374751 -0.0238856519 2.7894320911
H -3.3259276850 -2.3872941864 2.7994991005
H -3.6183075262 -1.6721898260 1.2150620254
H -2.6279344163 -3.9203776290 0.9244130974
H -1.2719768378 -3.4945244225 1.9706441625
H -1.9425884958 -2.2178186508 -0.7224236957
H -0.5803194727 -3.3071064149 -0.4014638503
H 1.3703943759 -1.2528461540 1.3012581170
H 0.3481003996 0.5225861437 2.3762795864
H -0.8390870038 1.7514609537 1.9151942566
H 1.4277689119 2.0574479464 0.8476042055
H 0.1063921075 1.9647308383 -0.3232511821
H 2.6498290850 -0.2037874136 -1.7705104719
H 2.0538374979 1.4629931518 -1.8154207792
H 3.5056530012 2.0038747654 0.1605243790
H 5.2119700436 2.3005968309 -1.6247844293
H 4.9238188383 0.6344537652 -2.1827457374
H 6.5725177845 -0.0389925389 -0.4200107342
H 6.1690913975 1.4151528693 0.5209664517
H 4.2705131614 -0.9577657737 0.0042692978
H 4.2974471434 0.0376078637 1.4785655549
