50
CONF12
C 4.8386977270 0.9700280081 2.2979800525
C 3.6542148460 0.1169374309 1.9544643661
O 2.9443228102 -0.4631019340 2.7290493109
O 3.4657489675 0.0996707954 0.5852943247
C 2.3018031701 -0.5189009421 0.1311106760
C 2.3784672444 -1.6045880977 -0.7416099074
C 1.2326486518 -2.1651450376 -1.3066056588
C -0.0375435036 -1.6725824898 -0.9725303498
C -0.0775334102 -0.6369073840 -0.0679231593
C 1.0486417522 -0.0258859590 0.4434227626
O 0.7432811502 1.0746922851 1.1932418965
C -0.6392955001 1.4170878067 0.8368552744
C -1.2877432792 0.0634310242 0.4754887804
C -1.8097513571 -0.6730181144 1.7231630983
C -2.2275915375 -2.0966983618 1.3708522047
N -3.1441574145 -2.1117325445 0.2271511202
C -2.6018462861 -1.4453915479 -0.9684531029
C -1.3393558907 -2.1023967097 -1.6007509139
C -2.3758206338 0.0419043468 -0.6008373777
C -2.0063883245 0.9028203141 -1.7644286456
C -1.2064445285 1.9590580022 -1.6432165973
C -0.6379679270 2.4444137590 -0.3472723084
O 0.7074064452 2.8863459358 -0.6473462747
C 1.2843473260 3.6776618588 0.2946207897
O 0.6963887983 4.1143596681 1.2550042654
C 2.7281455160 3.9133312983 -0.0417443279
C -3.6356044104 -3.4560445147 -0.0358275152
H 4.5102045653 2.0145898108 2.3315630726
H 5.6230953681 0.8868003313 1.5435969755
H 5.2106106613 0.6907345104 3.2831802105
H 3.3614430039 -1.9863914866 -0.9970877969
H 1.3345622542 -2.9801561972 -2.0170172357
H -1.0641972153 1.8804502125 1.7285031756
H -2.6692727791 -0.1200814636 2.1228880731
H -1.0287920737 -0.6975298021 2.4913321978
H -1.3260969785 -2.7131601910 1.1871955163
H -2.7478589543 -2.5471583188 2.2248480170
H -3.3988929613 -1.4843631901 -1.7239351354
H -1.3081239767 -1.8333167050 -2.6656802552
H -1.4467234621 -3.1931552280 -1.5750000958
H -3.3270317458 0.3933656577 -0.1735796952
H -2.4298094278 0.6581987663 -2.7370358285
H -0.9736152557 2.5815384205 -2.5033406664
H -1.2044416093 3.3239948836 -0.0118872545
H 3.1610289864 4.6107877889 0.6740961909
H 2.8234920989 4.3023947586 -1.0588889747
H 3.2571578108 2.9552724340 -0.0085422121
H -2.8397166968 -4.1985358488 -0.2369750192
H -4.3146206342 -3.4427450784 -0.8956208857
H -4.1994710942 -3.8108824428 0.8340986382
