46
CONF22
C 0.3091623989 2.6754458730 -3.2611945478
C 0.9580536671 2.1773193764 -1.9982274122
C 0.1866847858 1.9959689679 -0.8425602435
C 0.7777284127 1.5546861109 0.3392085925
C 2.1571127152 1.2852712975 0.4098588913
C 2.9035514515 1.4806274684 -0.7452468934
C 2.3220167200 1.9113661595 -1.9377974511
C 2.7646656448 0.7848150350 1.6864599032
O 0.0925031505 1.3263557042 1.5021318427
C -1.3290677258 1.4012940138 1.4857740465
C -2.0224853853 0.3868266953 0.6047317363
C -3.2270026893 0.7687604158 0.0103560298
C -3.9490635012 -0.1007715877 -0.7962549136
C -3.4541693916 -1.3769998584 -1.0439886506
C -2.2502755783 -1.7656305059 -0.4744009693
C -1.5286193217 -0.9067639860 0.3661019916
C -0.2793968203 -1.4514470235 0.9568246580
N -0.0664799948 -1.6314601234 2.2106127141
O -1.1217105308 -1.2032322104 2.9952637061
C -0.7885618978 -1.4305949112 4.3722421585
C 0.8557535860 -1.9291565248 0.0722003696
O 1.7216433662 -2.7019210839 0.4549218651
N 0.8149488789 -1.4327739470 -1.1964516031
C 1.9141980694 -1.7088348293 -2.1058373805
H -0.6424459767 2.1676810625 -3.4490536022
H 0.9578343441 2.5200742853 -4.1268566133
H 0.0963071645 3.7487358883 -3.1936613636
H -0.8784855839 2.1917946156 -0.8890132351
H 3.9702273696 1.2753251516 -0.7137662366
H 2.9373697217 2.0413757504 -2.8231296518
H 2.3337477324 -0.1804286066 1.9748956720
H 2.5752371548 1.4783424188 2.5122582733
H 3.8438257420 0.6607128500 1.5727638367
H -1.6525763630 2.4132563062 1.2011945489
H -1.6162272537 1.2306167056 2.5281712642
H -3.6005446853 1.7754121310 0.1824724816
H -4.8852439950 0.2215710556 -1.2403017790
H -3.9999108043 -2.0656059635 -1.6803830534
H -1.8538988120 -2.7579256860 -0.6660547175
H -0.6002985656 -2.4938348703 4.5508138692
H -1.6621328407 -1.1013441718 4.9387282029
H 0.0915172320 -0.8441253926 4.6560104825
H 0.2391688005 -0.6218602786 -1.3733119277
H 2.0423484488 -2.7892852451 -2.2148093384
H 2.8568140602 -1.2894706203 -1.7334680160
H 1.6861771842 -1.2672254326 -3.0782276427
