49
CONF15
C -4.1579024498 -0.6584671070 -0.3217849376
C -3.0182426917 -1.3860417891 0.3623840197
C -1.8660837558 -0.6023459883 1.0033473266
C -1.6636234929 -1.4533073150 -0.2812206262
C -0.7792006320 -2.6718112815 -0.1126209623
C -1.4056210337 -0.7572104613 -1.6003692287
C -1.7194265866 0.8485847189 0.9537913824
O -2.2042992318 1.6517545401 0.1859771656
O -0.8384976128 1.2437036011 1.9516519421
C -0.4497547433 2.6209635754 1.8917395145
C 0.0330733281 2.9626766171 3.2312233182
N 0.4299633312 3.2640679880 4.2727762065
C 0.6336861999 2.8815889373 0.8506676224
C 1.2306674783 1.8209555154 0.1792853955
C 2.2096398689 2.0949602165 -0.7744651520
C 2.5951922026 3.4037143206 -1.0521651288
C 1.9845338394 4.4504286613 -0.3704684436
C 1.0031795460 4.1987154348 0.5829390867
O 2.7930242826 1.1129371576 -1.5450018626
C 2.9097515460 -0.1829177693 -1.0654282438
C 3.3489078768 -0.4566221235 0.2278722929
C 3.5227899461 -1.7831540102 0.6127372008
C 3.2765645347 -2.8212792436 -0.2842472897
C 2.8508339677 -2.5277463863 -1.5776860085
C 2.6592016248 -1.2068783399 -1.9732658190
C -3.5247096909 -2.5604516862 1.1794515242
H -4.8851368078 -0.3244040007 0.4260603072
H -4.6687289431 -1.3551871001 -0.9963120524
H -3.8420764263 0.2112965872 -0.8928284968
H -1.4366172039 -1.0453858360 1.8960723387
H -0.8822111774 -3.1489798837 0.8625605215
H -1.0172347335 -3.4124854230 -0.8855517985
H 0.2702770903 -2.3840322777 -0.2393241718
H -0.3346525723 -0.5463953003 -1.7027872450
H -1.9462404316 0.1808336618 -1.7118569516
H -1.6938758318 -1.4243581213 -2.4208646738
H -1.3229075488 3.2502720302 1.6726185401
H 0.9396737230 0.7975501821 0.3833038274
H 3.3577969740 3.5864835052 -1.8015429857
H 2.2778615487 5.4724932922 -0.5866034840
H 0.5271263685 5.0191440550 1.1114926899
H 3.5561497062 0.3534066510 0.9191359139
H 3.8644905212 -2.0024825598 1.6194647585
H 3.4173886457 -3.8521230727 0.0235181728
H 2.6567262500 -3.3291538722 -2.2836930437
H 2.3241670074 -0.9598531956 -2.9752440124
H -2.7460342284 -3.0340094070 1.7785568934
H -4.3123628749 -2.2215886677 1.8607890002
H -3.9572257226 -3.3178580404 0.5155851671
