39
CONF89
C -4.0370730326 -1.0381999777 0.7318921752
C -2.8438786808 -1.8990141888 1.1375702248
C -1.6039130492 -1.6319142837 0.2813436160
N -1.1277542252 -0.2400084344 0.4090429520
C -0.5736049933 0.1378390789 1.7182600238
C 0.8051546827 0.7482364845 1.6066053068
O 1.6825424094 -0.2632785299 1.0356007952
C 2.9420855787 0.1814948572 0.7901357363
C 3.9700904861 -0.0009945558 1.7234151698
Cl 3.5912672500 -0.7654649520 3.2461752389
C 5.2779756549 0.3943995326 1.4734993382
C 5.5550355308 0.9971348447 0.2537142527
Cl 7.1968179823 1.5068404252 -0.0841009653
C 4.5766636007 1.2050746017 -0.7095319874
C 3.2814426999 0.7926565209 -0.4239872269
Cl 2.0349508024 1.0258267608 -1.6241300593
C -1.4916517745 0.7818326413 -0.3983005937
O -1.4979601768 1.9641526382 -0.0771104446
N -1.8447168456 0.4225277065 -1.7460884251
C -2.8394171678 1.0465013225 -2.4789856944
C -2.7408776535 0.5324892833 -3.7405978568
N -1.6926391737 -0.3692419207 -3.8182445310
C -1.1764837994 -0.4140464328 -2.6114533748
H -4.9204874368 -1.2938350472 1.3238796679
H -3.8329904179 0.0266082890 0.8896834258
H -4.2830517806 -1.1818036691 -0.3262670448
H -2.6112799331 -1.7483445225 2.1982493372
H -3.0870953896 -2.9618269966 1.0204741860
H -0.7787230516 -2.2910404627 0.5705613419
H -1.8424869189 -1.8387103920 -0.7617782049
H -0.5131081361 -0.7691900362 2.3243968870
H -1.2311051442 0.8500791434 2.2302908691
H 0.8072551151 1.6352634255 0.9655933094
H 1.1654631429 1.0199070252 2.6063478308
H 6.0539441705 0.2364706441 2.2120103683
H 4.8113921011 1.6720209506 -1.6579170578
H -3.5040081367 1.7661796490 -2.0274796933
H -3.3608492555 0.7566942256 -4.5972140011
H -0.3169251292 -0.9933152464 -2.3012948948
