22
CONF196
C 1.9270258886 0.3081742643 1.3432923851
C 1.4645183284 0.6515193075 -0.0630780728
C 0.2859350903 -0.1954547448 -0.5644165839
C -1.0059848991 0.0483111857 0.2068787790
C -2.1146062535 -0.8876952650 -0.2430415832
O -3.2824665664 -0.5335641373 0.5157548839
O -1.3830868813 1.4150851212 -0.0126534659
O 0.0988012225 0.0564764429 -1.9679616043
O 2.5947067985 0.4332433351 -0.9224245128
O 2.2602807402 -1.0757210871 1.4898539343
H 1.1375762544 0.5236429380 2.0682794802
H 2.7906433637 0.9449303748 1.5854772823
H 1.1753563677 1.7148076026 -0.0811827089
H 0.5550298719 -1.2541757731 -0.4814469417
H -0.8252507188 -0.1256291971 1.2793490184
H -2.2979320722 -0.7627305239 -1.3170520992
H -1.8168603729 -1.9276440328 -0.0461638025
H -4.0584156869 -0.8502716990 0.0390652616
H -2.3194048220 1.4797181354 0.2253888438
H -0.3431369838 0.9167647160 -2.0352801691
H 2.2437805126 0.3976075435 -1.8248316063
H 2.9134916118 -1.2773943217 0.8061932820
