50
CONF19
C 5.2362312232 -0.7763280239 -0.8904689190
C 3.9830575356 0.0577895005 -1.1558676634
C 3.1097535175 0.2147933564 0.0928479310
C 2.0037618864 1.2823483901 -0.0290272254
C 1.2635904770 1.2651068217 1.3113960000
C 0.3898425508 -0.0218255567 1.3368472926
C -1.0479493357 0.3720468658 0.9701674133
N -2.1578763558 -0.5267456321 1.3564691878
C -2.3789475881 -0.7086332414 2.7861025434
C -3.2438646364 -0.0862023212 0.5847236848
C -4.6036063710 -0.2798497731 0.8197825843
C -5.5137869683 0.2284728141 -0.1126119873
C -5.0831346651 0.9138447290 -1.2464959561
C -3.7135378925 1.1052639127 -1.4760809538
C -2.8009964076 0.6234905089 -0.5530636090
C -1.2994697471 0.5507587733 -0.5461696466
C -0.8000776035 -0.7131583226 -1.2741556065
C 0.6855154743 -0.6165197115 -0.9986601146
C 1.0244736910 0.9008408730 -1.1605889943
C -0.3624707562 1.6234090509 -1.1168710919
O -0.8270728761 1.9597891967 -2.4334073344
N 0.9482523256 -1.0388348258 0.3998033097
C 2.4230004772 -1.1217802627 0.5233701855
O 2.8003340646 -1.5678204423 1.8206061844
H 5.8381765946 -0.8856391731 -1.7978803396
H 4.9817100484 -1.7820946996 -0.5382722762
H 5.8599112532 -0.3033817585 -0.1238843800
H 4.2755888893 1.0571404249 -1.5034270913
H 3.4026880643 -0.3960637817 -1.9685531997
H 3.7725493631 0.5328868666 0.9107545118
H 2.4515733093 2.2639067803 -0.2190001230
H 1.9890935767 1.2605789945 2.1330676982
H 0.6488374947 2.1578265366 1.4529843440
H 0.3951034795 -0.4525934604 2.3429448886
H -1.2347966213 1.3468233236 1.4595883065
H -1.4656132880 -1.0798130417 3.2566149359
H -2.6778008403 0.2308616787 3.2814581946
H -3.1598916852 -1.4558001849 2.9499695556
H -4.9587905311 -0.8047620517 1.7002823304
H -6.5771450746 0.0904452310 0.0605453884
H -5.8092485160 1.3046556642 -1.9522639144
H -3.3702227363 1.6343218962 -2.3581607223
H -1.0149886565 -0.6231417894 -2.3432116847
H -1.2449962075 -1.6335642299 -0.8900101489
H 1.2811756284 -1.2555320348 -1.6585272291
H 1.4833381970 1.0969867697 -2.1349199027
H -0.3465126429 2.5285544251 -0.4951985273
H -0.1931367230 2.5810408744 -2.8132801845
H 2.7263683384 -1.9269158993 -0.1582473734
H 2.9120071550 -0.8019831388 2.3979802470
