71
CONF357
C 6.5024417859 -3.6483899295 3.5269916184
C 6.1588504743 -3.9412756598 2.0951511825
C 5.2146218853 -3.1781751360 1.3882724866
C 4.8446999862 -3.4967712561 0.0697164575
C 5.4582267112 -4.5874910085 -0.5468840094
C 6.4180678496 -5.3382858261 0.1254216257
C 6.7591675546 -5.0172121941 1.4338251687
C 3.8210247673 -2.6737507940 -0.6604377367
N 4.5740517492 -2.0784500899 2.0175176053
C 5.1944489352 -0.9610515028 2.4702909266
O 6.4084658859 -0.7611073730 2.4115867104
C 4.2569225114 0.0443884638 3.1361577252
N 2.8790601786 -0.0604900811 2.6736981842
C 2.6996406131 0.6298765179 1.3899604718
C 1.2841426169 0.4303889163 0.8754779878
N 0.3096675235 0.9524799364 1.8409299678
C 0.4984439764 0.2655962028 3.1248027266
C 1.9133792781 0.4636889416 3.6459217697
C -1.0696690792 0.7679128400 1.3708944194
C -1.4349938383 1.6600898418 0.1882607825
C -2.9082399246 1.5032078752 -0.1857069339
C -3.3269364866 2.3746377657 -1.3828789359
C -2.5817927595 2.0689641335 -2.6719975679
C -2.3564530611 3.1049006625 -3.5844394356
C -1.7222541227 2.8780311336 -4.8023393853
C -1.3127577674 1.5878435910 -5.0920569138
C -1.5080723136 0.5313009771 -4.2207790700
C -2.1463149436 0.7840372620 -3.0081261971
F -0.6876127394 1.3515066710 -6.2776431361
C -4.8309313481 2.2981644078 -1.5941855082
C -5.4331413723 1.1372504184 -2.0896847547
C -6.8128211538 1.0530855373 -2.2497963971
C -7.5799033744 2.1545464470 -1.9078926113
C -7.0292183329 3.3237874133 -1.4161140412
C -5.6450073800 3.3831316478 -1.2619346300
F -8.9300638075 2.0830703023 -2.0661328531
H 5.6126255712 -3.3630798433 4.0971342498
H 6.9552188966 -4.5250847646 3.9958158636
H 7.2072445111 -2.8134339688 3.5980235632
H 5.1836301909 -4.8406019687 -1.5670248711
H 7.4909583984 -5.6179413905 1.9669453475
H 3.6815910334 -3.0498519794 -1.6761413824
H 4.1282993689 -1.6238847593 -0.7176479669
H 2.8482846006 -2.6942355442 -0.1545303370
H 4.2946237429 -0.1729164830 4.2124435216
H 4.6924326801 1.0478433374 2.9929513849
H 2.9053672210 1.7122716489 1.4954901273
H 3.4114022785 0.2235735773 0.6621008693
H 1.1139062174 -0.6488831953 0.6821945962
H 1.1808987508 0.9614191014 -0.0756781339
H -0.2128483230 0.6743154868 3.8518779214
H 0.2995852466 -0.8212090435 3.0306867038
H 2.0309062570 -0.0782222123 4.5909981449
H 2.0859069268 1.5391282721 3.8424383806
H -1.7366199914 1.0051421057 2.2102035993
H -1.2570369655 -0.2922605629 1.1032308491
H -1.2306872798 2.7072423843 0.4470993112
H -0.8143085514 1.4176340034 -0.6809325190
H -3.1372323341 0.4497462865 -0.3918703881
H -3.5353384868 1.7890694662 0.6681498078
H -3.0972043510 3.4154070424 -1.1229137131
H -2.6853183037 4.1113800817 -3.3391461162
H -1.5444814421 3.6808394181 -5.5099437905
H -1.1647881061 -0.4637565449 -4.4831200606
H -2.2922344679 -0.0424842230 -2.3201750942
H -4.8204997802 0.2826724477 -2.3610714285
H -7.2867628035 0.1563110757 -2.6346028477
H -7.6660255651 4.1646365703 -1.1626310514
H -5.1940659369 4.2927686722 -0.8752029582
H 6.8917236016 -6.1814601721 -0.3681577883
H 3.5583178071 -2.0231694630 2.0243986499
