47
CONF155
C -7.0462366479 -0.4332787078 -1.3560323327
O -7.0049283299 -0.6913652697 0.0771014581
P -6.1079007706 0.2263643389 1.0263232717
S -6.3803857418 2.1451345839 1.0040742320
O -6.3733186920 -0.4117086470 2.4617828170
C -6.1754463120 -1.8438842924 2.6868724404
O -4.6245581215 -0.2732599263 0.5602127110
C -3.4615877815 0.4133438804 0.9020093112
C -2.6578204956 0.8632899983 -0.1396191575
C -1.4669526179 1.5118233563 0.1566105759
C -1.0802851696 1.6889136990 1.4884779304
C -1.8957160039 1.2268926512 2.5218180131
C -3.0991356166 0.5898627164 2.2306772990
S 0.4224622491 2.5705515029 1.8938987244
C 1.6820702644 1.5958147782 1.0781203507
C 1.5499951331 0.2207146776 0.8679078811
C 2.5820162636 -0.4918577936 0.2695677266
C 3.7473828500 0.1709891570 -0.0909264226
C 3.9025168173 1.5337457497 0.1250576921
C 2.8590937856 2.2495673955 0.7023883093
O 4.7910422274 -0.5826320559 -0.6346246954
P 5.2130923847 -0.4620359959 -2.2052879391
S 3.7455366700 -0.1984040753 -3.4450446821
O 6.1118382710 -1.7754328139 -2.3420506310
C 5.4832239775 -3.0887014171 -2.3070314592
O 6.3003564422 0.6993291317 -2.2981068259
C 7.4761135986 0.6878707054 -1.4279117188
H -6.0477254354 -0.5470056577 -1.7858252927
H -7.4323893526 0.5724101967 -1.5409016582
H -7.7227097136 -1.1806730818 -1.7686616002
H -6.3050013332 -1.9877441326 3.7587322461
H -6.9237670232 -2.4124864422 2.1315117214
H -5.1660541593 -2.1357721338 2.3859036271
H -2.9753559460 0.7158799490 -1.1663107464
H -0.8377494602 1.8788549069 -0.6476106662
H -1.5909351626 1.3544084701 3.5550123768
H -3.7344763880 0.2213298896 3.0290638413
H 0.6446619258 -0.2975442355 1.1646084363
H 2.4914738490 -1.5580778577 0.0905996248
H 4.8205925817 2.0343479411 -0.1644435051
H 2.9649947369 3.3185663226 0.8579508385
H 4.9644782336 -3.2309969645 -1.3554599103
H 4.7863817723 -3.1887912944 -3.1432028843
H 6.2971296241 -3.8061427780 -2.4044086184
H 7.1713170093 0.5834525644 -0.3835260957
H 8.1421934855 -0.1267039045 -1.7186706917
H 7.9604710217 1.6510411210 -1.5835799105
