66
CONF24
C -4.9576002281 4.1079631754 1.1859996419
C -3.5515389040 4.2555950173 0.6381830639
O -2.8184882550 3.0128249120 0.7414958834
C -3.0150948067 2.1170507045 -0.2682634851
O -3.7676430664 2.3415554606 -1.2019892698
C -2.2212499565 0.9065207316 -0.0557139031
C -2.3731617821 -0.1507392110 -0.9014573997
N -1.7133268373 -1.3292180667 -0.6323990628
C -0.9609790548 -1.5658065152 0.4957682149
C -0.7883607160 -0.5655211579 1.4026305146
C -1.2455968920 0.8585879414 1.1162034668
C -0.0431886311 1.7996216413 0.9417126896
C 0.0748135956 2.8955443076 1.7962383462
C 1.1743318621 3.7423182468 1.7527078508
C 2.2024863728 3.4964733180 0.8458474787
C 2.1123940007 2.4075857847 -0.0061216421
C 1.0002105839 1.5510319638 0.0231087737
C 0.9395982685 0.4227737336 -0.8993508771
C 1.9659292013 -0.3618218479 -1.2623827438
C 1.7301674213 -1.5013855180 -2.1649210906
O 0.6454553840 -1.8286198201 -2.6193413860
O 2.8925479404 -2.1512988625 -2.3945503504
C 2.9347233866 -3.3683629278 -3.2313915853
C 4.4107152411 -3.7474469445 -3.1873477385
C 2.0803044965 -4.4653992804 -2.6028352317
C 2.5057696010 -3.0387623695 -4.6574110449
C -0.0930269976 -0.8419125401 2.6594953880
O 0.4426171856 -1.8879991494 2.9868765436
O -0.1091829615 0.2488044436 3.4765303081
C 0.5970023113 0.0972535589 4.7281573634
C 0.5551693544 1.4391776825 5.4237437305
C -0.4075960556 -2.9545744127 0.5869438629
C -3.2176455053 -0.1896773176 -2.1390547014
H -4.9337798265 3.7536254928 2.2205468020
H -5.5318361481 3.4032249786 0.5802648699
H -5.4665846595 5.0770285167 1.1644389113
H -2.9638975872 4.9638585480 1.2291783467
H -3.5647242241 4.5760593665 -0.4074898072
H -1.6491326922 -2.0055773537 -1.3770699908
H -1.7719749731 1.2303452269 1.9996659700
H -0.7147226085 3.0730208711 2.5193272742
H 1.2318358193 4.5911569362 2.4272236392
H 3.0639792290 4.1546787177 0.7981373711
H 2.8933005354 2.2224077269 -0.7372663741
H -0.0240979676 0.1920169901 -1.3384068632
H 2.9674524438 -0.2365198575 -0.8637801127
H 4.7270682310 -3.9425085501 -2.1589667069
H 4.5791401250 -4.6490326764 -3.7827424162
H 5.0257502342 -2.9400385358 -3.5941089398
H 1.0181863916 -4.2273136321 -2.6651741914
H 2.3565866801 -4.6055236184 -1.5531408449
H 2.2619815332 -5.4061904566 -3.1317878871
H 3.0954174602 -2.2023730772 -5.0446759091
H 2.6892749883 -3.9094783553 -5.2948319093
H 1.4472933626 -2.7820883557 -4.7064676706
H 1.6224492230 -0.2252897355 4.5190842994
H 0.1138961313 -0.6900513426 5.3177209726
H -0.4765272632 1.7479236466 5.6152148117
H 1.0797007594 1.3759897041 6.3818044329
H 1.0399338728 2.2046084984 4.8111223297
H -0.8032081897 -3.4773322743 1.4609291546
H 0.6764829437 -2.9246557858 0.7146727413
H -0.6483265591 -3.5237324339 -0.3155894205
H -2.9467747964 0.6186320602 -2.8202866429
H -3.1029110000 -1.1495234315 -2.6508330894
H -4.2717883068 -0.0394826172 -1.8938237905
