39
CONF107
C 4.1607597049 -0.2338678594 -2.1723236491
C 3.2860456448 0.1205607135 -0.9722859145
C 3.1480371816 -1.0441030014 0.0066413082
C 2.2761539941 -0.7225799139 1.2215821215
N 0.8932995984 -0.4424635135 0.8535513697
C 0.4057311853 0.8107411582 0.8381183244
O 1.0112917848 1.8319532060 1.1033384378
N -0.9849502787 0.8886801206 0.4341097183
C -1.4983469882 1.9734152066 -0.2795266845
C -0.8828456787 3.0423020942 -0.9203192734
C -1.7225490651 3.9359889593 -1.5744643245
C -3.1164336316 3.7675650266 -1.5909818064
C -3.7215440179 2.6969285590 -0.9488959143
C -2.8956001053 1.7914461728 -0.2846990396
N -3.2356722967 0.6452666402 0.4171635403
C -2.1004069394 0.1432500362 0.8154304705
N -2.0386772244 -0.9651129169 1.6792940715
C -1.7004801909 -2.2229374050 1.2285574878
O -1.0482058587 -2.4606036705 0.2279002236
O -2.1615176325 -3.1559651155 2.0836671657
C -1.8090428972 -4.5133975518 1.7369557498
H 3.7403553578 -1.0791697898 -2.7277891312
H 5.1713639052 -0.5137206815 -1.8554926184
H 4.2485331127 0.6093617011 -2.8635059512
H 2.2908941552 0.4236489367 -1.3200215278
H 3.7002812019 0.9879973891 -0.4440942776
H 2.7369640316 -1.9203564286 -0.5141261131
H 4.1405761382 -1.3393205476 0.3725916777
H 2.6586599236 0.1591422999 1.7436909055
H 2.2834631325 -1.5653535577 1.9240554310
H 0.3407594950 -1.1857034246 0.4341389781
H 0.1896030829 3.1841342691 -0.8866451717
H -1.2870848851 4.7918110986 -2.0795115098
H -3.7297811022 4.4928702580 -2.1153649468
H -4.7965850183 2.5557270721 -0.9568009520
H -2.7589167375 -0.9538657067 2.3893742153
H -2.2575975026 -5.1310140856 2.5140752554
H -0.7228796248 -4.6324362616 1.7271179236
H -2.2136531501 -4.7708210158 0.7554948164
