66
CONF17
C -1.5935021924 4.3787479857 -0.9709851859
C -2.8210539723 3.7403717083 -0.3486977733
O -2.4782167013 2.4824817999 0.2776677822
C -2.3507988932 1.4136387342 -0.5597384575
O -2.6512453972 1.4671197175 -1.7409409210
C -1.8170936056 0.2553627491 0.1568359561
C -1.7449163959 -0.9505044477 -0.4695649302
N -1.2986338209 -2.0482911070 0.2308926856
C -0.9521794717 -2.0396363911 1.5638505980
C -0.9715353074 -0.8635579313 2.2512524104
C -1.2540999428 0.4652417582 1.5566106450
C -0.0368233330 1.4020720076 1.5114968911
C -0.0747129196 2.5855179352 2.2484432522
C 0.9466828673 3.5235014095 2.1789847560
C 2.0373535549 3.2989266041 1.3418633527
C 2.0916547394 2.1349563289 0.5920648304
C 1.0704702782 1.1740537856 0.6658302188
C 1.1725027776 -0.0465945433 -0.1268299976
C 1.6393429552 -0.1425409349 -1.3812290953
C 1.6268965824 -1.4458319482 -2.0667094871
O 1.2026721966 -2.4874674940 -1.5923129994
O 2.1317175093 -1.3129769760 -3.3130870990
C 2.1955529271 -2.4645110374 -4.2366088527
C 2.7966063390 -1.8451964257 -5.4934641495
C 3.1193260386 -3.5378074797 -3.6703132045
C 0.7910145468 -2.9905262157 -4.5166887851
C -0.7240057644 -0.8721131686 3.6934531123
O -0.4080794017 -1.8322225027 4.3765905101
O -0.9012246870 0.3678865212 4.2310164740
C -0.6509434152 0.4652802824 5.6518396457
C -0.8029604903 1.9208536718 6.0315216077
C -0.5942809661 -3.3877919502 2.1122075892
C -2.1075889339 -1.2345857752 -1.8946675812
H -1.8479953766 5.3695214955 -1.3612448406
H -1.2221738127 3.7676638684 -1.7971630472
H -0.7991455236 4.4879416260 -0.2264517754
H -3.6062691559 3.5724802157 -1.0918177439
H -3.2169569004 4.3487459113 0.4689191051
H -1.0593564198 -2.8677028179 -0.3049488829
H -2.0028576840 0.9973259445 2.1507229436
H -0.9391783940 2.7724089438 2.8771260252
H 0.8886688506 4.4327295158 2.7696754814
H 2.8431343745 4.0232733690 1.2812854397
H 2.9506499911 1.9346198599 -0.0408476362
H 0.8423792781 -0.9679037087 0.3400371031
H 1.9688705698 0.7210581267 -1.9497310114
H 2.9048950435 -2.6091714864 -6.2683280130
H 2.1523125401 -1.0482316336 -5.8748657565
H 3.7822621044 -1.4235140715 -5.2784609518
H 3.2768196778 -4.3104603758 -4.4295369628
H 2.6949536323 -4.0012811357 -2.7791862965
H 4.0918178746 -3.1038305146 -3.4189553787
H 0.3649175077 -3.4745304431 -3.6375256538
H 0.1356190194 -2.1719914999 -4.8302595351
H 0.8395017771 -3.7195696149 -5.3316397843
H 0.3560397263 0.0891188010 5.8605585804
H -1.3626582464 -0.1764901275 6.1830374705
H -1.8084599542 2.2827722658 5.7978931537
H -0.6347697807 2.0412775586 7.1058041180
H -0.0760120674 2.5381054150 5.4960163556
H -1.2906092043 -3.6826917690 2.9008426979
H 0.3947415269 -3.3701999478 2.5730890921
H -0.6115549175 -4.1409465307 1.3191890683
H -1.9700866662 -2.2952969133 -2.1234795800
H -3.1409683754 -0.9494676456 -2.1013224804
H -1.4864300070 -0.6396174414 -2.5690141071
