41
CONF26
O 8.7798071345 -1.1441071219 -1.1065772767
N 8.1703753050 -0.3797394825 -0.3528483553
O 8.7347328464 0.4073994859 0.4125575691
C 6.7194462586 -0.4076628753 -0.3672571259
C 6.0123423213 0.4523945056 0.4797790667
C 4.6332143380 0.4287270932 0.4696001407
C 3.9452898202 -0.4560255395 -0.3882695459
C 4.6822471604 -1.3118186439 -1.2284317344
C 6.0634254905 -1.2926228900 -1.2244206855
N 2.5560466940 -0.5722697649 -0.4832197037
N 1.9085855702 0.2373623113 0.2675565394
C 0.5379334501 0.1522657729 0.2141212003
C -0.1744158927 1.0460287644 1.0413445644
C -1.5472420808 1.0580047522 1.0768285830
C -2.3040495770 0.1584119883 0.2725825262
C -1.5751405345 -0.7462890586 -0.5612972590
C -0.2054265641 -0.7467014299 -0.5885649445
N -3.6590531659 0.1541158358 0.2937757407
C -4.4165956612 1.0172811505 1.2010775032
C -4.6296679733 2.4283550378 0.6520302530
O -5.3596084236 2.4401877641 -0.5774401868
C -4.4481040367 -0.7641976973 -0.5396297972
C -4.6131932481 -2.1384464938 0.1052271292
H 6.5495391442 1.1267218722 1.1351373549
H 4.0745276762 1.0883158793 1.1217145969
H 4.1442304865 -1.9894542961 -1.8830638584
H 6.6318385872 -1.9491510683 -1.8707671116
H 0.3895954625 1.7398350243 1.6576052596
H -2.0413013815 1.7728338684 1.7207797260
H -2.1019987649 -1.4608751788 -1.1799019250
H 0.3168091675 -1.4486195828 -1.2282884753
H -5.3895922097 0.5443891843 1.3717866406
H -3.9216574027 1.0776064872 2.1767050064
H -3.6676724734 2.9007208363 0.4317616720
H -5.1371755322 3.0253856252 1.4232598613
H -6.2604021579 2.1456651846 -0.3909825347
H -5.4255319651 -0.2992890830 -0.6870496034
H -3.9905475150 -0.8428496667 -1.5299112401
H -3.6452110552 -2.6236514486 0.2597573789
H -5.2222936523 -2.7778294627 -0.5406224265
H -5.1141053546 -2.0504084648 1.0741954560
