23
CONF3
C -3.0017480275 1.2777430664 0.8484010776
C -1.8477329633 0.6192867498 1.2561930735
C -1.2604991326 -0.3362835592 0.4376181083
C -1.8303253517 -0.6427925779 -0.7981209085
C -2.9813016982 0.0078883194 -1.2269385402
C -3.5473551899 0.9619785964 -0.3897910613
Br -5.1339340848 1.8581980754 -0.9678445521
Br -1.0383405369 -1.9714564240 -1.9042492629
O -0.1574761144 -1.0274695199 0.9036658119
C 1.0778041110 -0.6755373246 0.4334519119
C 1.3069850203 0.4749013654 -0.3133214673
C 2.5931976653 0.7789276800 -0.7458402631
C 3.6599358829 -0.0610977642 -0.4320459150
C 3.4321556914 -1.2113579756 0.3198106095
C 2.1499441770 -1.5158741018 0.7451570926
Br 1.8477881426 -3.0963501989 1.7561952529
Br 5.4400893034 0.2974272982 -0.9963171366
Br 2.8276460732 2.3663433307 -1.7661594604
H -3.4615815333 2.0224910373 1.4863774153
H -1.3904205706 0.8405694578 2.2147765357
H -3.4239703879 -0.2324370253 -2.1853053228
H 0.4834227732 1.1348342748 -0.5593452205
H 4.2557169625 -1.8699325843 0.5665558394
