41
CONF114
C -5.1057753706 -0.7729682635 -0.5651482086
C -4.5633784918 0.4337600133 -1.3303171648
N -3.5449997766 1.1933610965 -0.5916405396
C -3.9911080933 2.3677500919 0.1545073819
C -4.2553493163 2.0659446611 1.6292134377
O -4.5055758397 3.3256650905 2.2582492852
C -2.2546088123 0.7656223197 -0.5287815557
C -1.2733439483 1.4805579737 0.2240184981
C 0.0365039754 1.0763200729 0.2575116461
C 0.4581070149 -0.0744846346 -0.4472571897
C -0.5072586020 -0.7949870528 -1.1782576183
C -1.8233698678 -0.3997787912 -1.2206758147
N 1.7431231577 -0.5714241071 -0.4828703623
N 2.6207098282 0.0900799675 0.1668543395
C 3.9085689229 -0.4557951683 0.1124174583
C 4.2537073760 -1.6627902346 -0.5302492272
C 5.5602171181 -2.1063448430 -0.5146920758
C 6.5324781568 -1.3475753058 0.1439114619
C 6.2169394746 -0.1518996791 0.7890394591
C 4.9061904378 0.2854598064 0.7705827533
N 7.9090046072 -1.8185217086 0.1584008303
O 8.7527141015 -1.1387369476 0.7467178404
O 8.1708213595 -2.8763271703 -0.4184402006
H -5.8280066768 -1.3056846162 -1.1913134341
H -5.6128184556 -0.4591355398 0.3510403944
H -4.3064097627 -1.4690923736 -0.2957118228
H -5.3781647770 1.1267399813 -1.5545545868
H -4.1447604365 0.1227797491 -2.2930791641
H -4.9081879998 2.7385665326 -0.3104599561
H -3.2496150180 3.1702935883 0.0771982045
H -5.1210313865 1.3971171578 1.7272841126
H -3.3814981566 1.5661340234 2.0721748242
H -4.7476992494 3.1574887236 3.1765163467
H -1.5521495202 2.3612115588 0.7878731313
H 0.7573383122 1.6428330517 0.8353717087
H -0.1900217209 -1.6842766379 -1.7145672267
H -2.5244027982 -0.9950639059 -1.7899252423
H 3.4884447891 -2.2407244276 -1.0330607946
H 5.8385095829 -3.0317642472 -1.0033958491
H 6.9890513401 0.4160869137 1.2920748220
H 4.6271055220 1.2107617903 1.2634395844
