43
CONF31
C 3.4924779921 -0.0970170406 3.6112684949
C 2.3550699450 -0.3376845141 2.6438796905
O 2.8539726817 -0.3911517132 1.2662967300
C 3.3278168079 -1.5639781154 0.8437083480
O 3.3733449963 -2.5850390998 1.5003023682
C 3.8892793988 -1.4889875965 -0.5759149525
C 5.3862798683 -1.2219284958 -0.5051719719
O 3.3178245486 -0.4347441316 -1.3538744708
C 1.9907621554 -0.5142602607 -1.6799342514
C 1.4837930393 0.5827752995 -2.3844956936
C 0.1515478650 0.6085379791 -2.7680057674
C -0.6664382205 -0.4651199360 -2.4415996987
C -0.1807983297 -1.5594096553 -1.7495161918
C 1.1586502261 -1.5904652726 -1.3627381033
O -2.0012442226 -0.4686513974 -2.8819380106
C -2.9322865383 0.0954612336 -2.0732028471
C -4.2665218364 0.0752426882 -2.5854819897
N -5.2624980488 0.5842745579 -1.9108119817
C -4.9727994036 1.1372948271 -0.6926539197
C -6.0160737138 1.6990836686 0.0699946221
C -5.7131520684 2.2515280728 1.2914022032
C -4.4018500799 2.2735472302 1.8019711131
C -3.3774007014 1.7265691139 1.0630274343
C -3.6379444871 1.1486076497 -0.1959191919
N -2.6131763993 0.6103604527 -0.9198662102
Cl -6.9972006910 2.9592103205 2.2603429586
H 3.0858745484 0.0002360704 4.6226736917
H 4.0228762356 0.8265121396 3.3629370562
H 4.2002551738 -0.9299055091 3.6029863547
H 1.6492892659 0.4947669839 2.6332524218
H 1.8224031166 -1.2678316823 2.8560105472
H 3.7033586562 -2.4601587909 -1.0512351978
H 5.8026068946 -1.2175304701 -1.5152667077
H 5.5779156485 -0.2549660932 -0.0316505212
H 5.8740150190 -2.0086418262 0.0750336457
H 2.1461682096 1.4077406908 -2.6245560824
H -0.2541176346 1.4546636857 -3.3127785345
H -0.8409294590 -2.3857914151 -1.5077872065
H 1.5232707418 -2.4571773742 -0.8245927813
H -4.4610629700 -0.3729375597 -3.5581172075
H -7.0276035785 1.6840216520 -0.3195967815
H -4.2067311097 2.7197913872 2.7704551800
H -2.3590231396 1.7331521460 1.4373791957
