56
CONF29
C 2.5374895274 0.5517007351 1.2534131380
C 2.8827165132 1.8392508774 0.5207361168
N 3.3224044196 1.5552279534 -0.8499274589
C 2.2696851431 0.8153193802 -1.5569953763
C 1.9296087673 -0.4682423801 -0.8165238220
N 1.4786377125 -0.1613817030 0.5398729069
C 1.0224229629 -1.3576290002 1.2477355573
C 0.1955921071 -1.0288771740 2.4937389948
C -0.8552987492 0.0514734212 2.2241846249
N -1.6615913618 -0.2553034595 1.0355592096
C -1.8220564763 0.7128619696 0.0299472164
C -1.7573727199 2.0846038128 0.3100907491
C -1.8563570408 3.0250701428 -0.7114205298
C -2.0688257510 2.6240231968 -2.0268653728
C -2.1913042741 1.2666907721 -2.3137276745
C -2.0518320928 0.3239308209 -1.2994704654
S -2.0740265177 -1.4089868268 -1.7075152205
C -2.7687476474 -2.0400118903 -0.2016793310
C -2.4392335885 -1.4154585590 1.0183506883
C -2.8979624654 -2.0050095491 2.1998189041
C -3.6392083231 -3.1859773191 2.1576781397
C -3.9742493192 -3.7875647516 0.9504249243
C -3.5464233096 -3.1915820301 -0.2329703739
C -4.0627694293 -3.7826505445 3.4631458951
F -4.7907938647 -4.9113795889 3.3163392241
F -4.8176025462 -2.9206226492 4.1998573382
F -2.9934420169 -4.1029301980 4.2448882544
C 3.6921393888 2.7882770090 -1.5560226346
C 4.5698331996 2.4765547465 -2.7606952632
O 5.7054406948 1.6947450134 -2.3691188591
H 3.4483028730 -0.0737914747 1.3512522980
H 2.1970472630 0.8043930573 2.2636042487
H 3.6910530557 2.3561105716 1.0504180741
H 1.9939072714 2.5027341713 0.5248649372
H 2.6119181482 0.5659022611 -2.5667613340
H 1.3527339082 1.4327784692 -1.6515753685
H 1.1209223944 -0.9833970950 -1.3491223073
H 2.8147030779 -1.1369479990 -0.8142247748
H 1.8649586177 -2.0176810814 1.5327487233
H 0.3947384112 -1.9266542802 0.5507175735
H -0.2648475556 -1.9565081616 2.8506482634
H 0.8294353502 -0.6676333850 3.3114477293
H -1.4800237273 0.2218638483 3.1112821630
H -0.3310204970 0.9828167650 2.0147497636
H -1.6287249418 2.4223715457 1.3317616868
H -1.7814426648 4.0798997488 -0.4669684973
H -2.1510457265 3.3555847296 -2.8235249070
H -2.3696956722 0.9324314822 -3.3314261037
H -2.6732088284 -1.5510932477 3.1576900519
H -4.5535219251 -4.7021065274 0.9208484809
H -3.7917187016 -3.6454324413 -1.1878660829
H 4.2638553300 3.4146821852 -0.8605422649
H 2.8048973223 3.3658196264 -1.8786392940
H 3.9974329891 1.9546227509 -3.5419899973
H 4.9441964919 3.4109235038 -3.1912756110
H 5.3582744867 1.0721888286 -1.7090671446
