53
CONF90
C -5.2071450652 -1.4650441668 -0.0879611965
O -3.8933510720 -0.8457427256 0.0072053246
C -3.5336286361 -0.0907217396 -1.0313092458
O -4.1912362887 0.0830787507 -2.0309922394
C -2.1731223668 0.5983078660 -0.7745578365
C -2.3839825995 1.6969789644 0.2997461334
C -1.9980320102 0.9948479855 1.5800049991
C -1.2537490334 -0.1657225624 1.3178371139
C -1.1382367877 -0.3019086687 -0.1237444436
N -0.1434776705 -0.8440513432 -0.7296549692
N -0.0820514580 -0.6575441699 -2.0854202207
C -1.1822204445 0.0169165037 -2.7851565616
O -1.6564457696 1.1036872756 -1.9923773614
C 1.1180255570 -0.8584398449 -2.7384340366
O 1.1941002926 -0.8739054556 -3.9542634687
N 2.2468488920 -0.9904664827 -1.8757771503
C 2.4431514600 -0.0039884825 -0.8584823852
C 2.8402241042 -0.3790191370 0.4240689575
C 2.9345618018 0.5799088178 1.4226083442
C 2.6064637517 1.8941611001 1.1204583290
C 2.2380059920 2.2906018034 -0.1536472885
C 2.1715833713 1.3293298771 -1.1563180478
O 2.7147486265 2.8787587802 2.1305101401
C 1.6091725987 3.0691066975 2.8843317328
F 0.5255107812 3.4173232665 2.1511605026
F 1.8663160623 4.0572771108 3.7484859008
F 1.2585514214 1.9698606983 3.5913224155
C 3.2667263066 -1.9067073038 -2.1516265011
O 4.3896215894 -1.8173459441 -1.6997968802
O 2.8192273865 -2.9005689617 -2.9271925891
C 3.8240403239 -3.8698117005 -3.3186185586
C -0.7246759648 -0.9337344623 2.3503242979
C -0.9620370847 -0.5401556505 3.6624368269
C -1.7127956300 0.6102429513 3.9037860133
C -2.2400196265 1.3978538610 2.8824407932
Cl -1.9933041113 1.0956374771 5.5688463610
H -5.9741718360 -0.6926704394 -0.1741710356
H -5.2408669414 -2.1282594078 -0.9546084114
H -5.3235656427 -2.0270893861 0.8368854140
H -1.6833537970 2.5136761947 0.0871471820
H -3.3981210962 2.1041045133 0.3073737348
H -0.8014617508 0.4262852924 -3.7200412084
H -1.9892009946 -0.7006449679 -2.9806240545
H 3.0477375287 -1.4189408204 0.6470145324
H 3.2343980940 0.3097625636 2.4287983477
H 2.0155787984 3.3313423509 -0.3598922808
H 1.8910553241 1.6192638783 -2.1641674728
H 4.2234204603 -4.3732771434 -2.4356129014
H 4.6293649424 -3.3751029501 -3.8659992447
H 3.2992825109 -4.5754886781 -3.9607495173
H -0.1480948848 -1.8285454065 2.1407759774
H -0.5739293248 -1.1192302836 4.4922859077
H -2.8054414872 2.2958139061 3.1053415194
