29
CONF157
C -3.1732937284 -0.2131122370 -1.9205158916
N -3.0036090840 -0.3871342823 -0.4649408933
C -3.2136626355 -1.7563440562 0.0591678093
C -4.6995545060 -2.0184097637 0.2711969975
O -5.2553540029 -1.1817650621 1.2853713481
S -2.0024839375 0.6480208503 0.3344936964
O -2.1863164511 1.9996174299 -0.1989531628
O -2.0701732885 0.3650127246 1.7707975482
C -0.2228621471 0.1372793520 -0.2013659666
C 0.8786047177 0.6652148830 0.7651633359
C 2.3208830922 0.6309678934 0.1553458744
C 3.4666379367 0.7607174072 1.2118788297
F 4.6278156952 0.9527024183 0.5719864244
F 3.2382913970 1.8060754249 2.0191968630
F 3.5642341851 -0.3505763949 1.9492646815
F 2.4496432327 1.6504041889 -0.7204657094
F 2.4980657097 -0.5405365631 -0.5000842687
F 0.8630174506 -0.0892668287 1.8869645156
F 0.5851930678 1.9465905513 1.0903938230
F -0.0166768600 0.6222235444 -1.4440801283
F -0.1859318146 -1.2098776251 -0.2434529558
H -3.0642656431 0.8379727630 -2.1878772978
H -2.4481092714 -0.8206432686 -2.4745382729
H -4.1850102258 -0.5318878537 -2.1825782144
H -2.6923611889 -1.8642226395 1.0126348459
H -2.7972935211 -2.4796714461 -0.6537597863
H -5.2527266354 -1.9133359218 -0.6722844351
H -4.8130274383 -3.0510869580 0.6153059082
H -5.2122336846 -0.2700773258 0.9675491992
