78
CONF90
C -1.0639757647 -1.4853863715 -1.3878752662
C -0.5348990814 -2.6713811488 -2.1838869281
O -1.5265832259 -3.7260516722 -1.9298230281
C -2.2104955093 -3.4701385571 -0.7822506629
O -3.0345065768 -4.2467625397 -0.3576833224
C -1.7094024583 -2.1755132034 -0.1951807302
C -2.6635615554 -1.2520982479 0.5668623622
C -3.9981256637 -1.0399896779 -0.1394685494
C -4.1511191028 -0.0467204308 -1.1094679779
C -5.3691218317 0.1121948668 -1.7730222832
O -5.6153487974 1.0488348965 -2.7349500048
C -4.5286548698 1.9101373885 -3.0983330706
C -6.4490660463 -0.7193086974 -1.4569600654
O -7.6384456211 -0.5449045705 -2.1073264180
C -6.2932072272 -1.7009177541 -0.4713272273
O -7.4233595285 -2.4373599057 -0.2425837420
C -7.3407630646 -3.4890329141 0.7292216698
C -5.0767169610 -1.8632775211 0.1879740059
C -1.9534194860 0.0764607409 0.8073013363
C -2.5575564518 0.9499754469 1.7349851354
C -2.0162683755 2.2016713194 1.8905072610
C -0.9154654935 2.6207388225 1.1509714740
O -0.5828090283 3.9055064839 1.4896138934
C -1.5634596662 4.3309978846 2.4617644851
O -2.4272148963 3.2014882310 2.7276104335
C -0.3065219482 1.7951323423 0.2414352847
C -0.8272177431 0.4902963695 0.0784628116
C -0.1038343196 -0.4267656353 -0.8888454699
O 0.9948909063 -1.1633912144 -0.2647059769
C 1.8742020307 -0.4428278428 0.5244222696
O 2.6125743425 0.4575282079 -0.3192615554
C 3.4980108210 1.2526452427 0.4648666824
C 4.1975576388 2.2703409793 -0.4170831895
O 5.1541349847 2.9809670405 0.3954361974
C 6.0906266880 2.1462249545 1.0533576620
O 5.4643632844 1.1460042972 1.8554196050
C 4.5559474435 0.3455884674 1.0829963663
C 3.8951855702 -0.6761567627 1.9855490821
O 4.8126467540 -1.6577049237 2.4730441539
C 2.8300148395 -1.4322205737 1.1903619665
O 2.0606706278 -2.2717808317 2.0451362886
C 7.0864225452 1.5497570394 0.0901845288
C 7.4731232843 2.0177160456 -1.1370424363
C 8.5225932249 1.2556334730 -1.7204560754
C 8.9342447625 0.2212647006 -0.9262427095
S 8.0322761033 0.1613889297 0.5528685773
H -1.8390507098 -0.9857657185 -1.9808397944
H 0.4324670913 -3.0284800271 -1.8207374859
H -0.5043725332 -2.5129944212 -3.2623993262
H -0.9044811912 -2.4757042721 0.4952332685
H -2.8809913299 -1.7076231849 1.5395765876
H -3.3271751857 0.6218136436 -1.3238415681
H -3.6823334391 1.3318685337 -3.4879046867
H -4.2005563253 2.5136644072 -2.2436396072
H -4.9191150342 2.5626892019 -3.8796942753
H -8.2613741311 -1.2004327371 -1.7589031839
H -7.1055841828 -3.0853631291 1.7204990497
H -8.3260119108 -3.9551203950 0.7447126582
H -6.5843460034 -4.2270711647 0.4391805123
H -4.9560764628 -2.6276512877 0.9448106226
H -3.4390931868 0.6430563742 2.2887677354
H -2.1594223684 5.1487604145 2.0417748587
H -1.0544459553 4.6210937261 3.3859692258
H 0.5560591679 2.1196387555 -0.3312669873
H 0.3118007107 0.1635693288 -1.7137951975
H 1.3465094889 0.1454593072 1.2959701775
H 2.9442497586 1.7737446479 1.2640771427
H 3.5060973218 3.0244257599 -0.7996624579
H 4.6891476653 1.7626380631 -1.2579323998
H 6.5968647551 2.8007097102 1.7710871553
H 5.0972784887 -0.1733409102 0.2759147589
H 3.4087088465 -0.1552034470 2.8255747312
H 5.3618052664 -1.2428700526 3.1506177341
H 3.3235842181 -2.0206387887 0.3999665070
H 2.6882960682 -2.7985783267 2.5589321267
H 7.0170201932 2.8821132296 -1.6052408983
H 8.9536251444 1.4657403538 -2.6924367082
H 9.7025504033 -0.5154787445 -1.1209472195
