50
CONF152
C 1.7906930354 -0.4143431178 1.5452599898
C 2.4602227265 -0.1571785309 0.2181372134
C 1.7806809360 0.5895074837 -0.7492203118
C 2.4186520417 0.9244370567 -1.9586174026
C 3.7230485096 0.5792245973 -2.2074419133
C 4.4491565488 -0.1680868140 -1.2581280510
C 3.7913995624 -0.5918926876 -0.0595875149
C 4.5964968537 -1.4800768672 0.7568592581
N 5.8806724036 -1.7012420939 0.4960407654
C 6.4098897944 -1.1339206346 -0.6136782178
N 5.7554646726 -0.4409722739 -1.5345378633
N 7.7591534829 -1.3019114640 -0.7748079051
N 4.1055263181 -2.1495801031 1.8304015951
C 0.3593269039 1.0554745245 -0.5538170540
N -0.5556530579 -0.0856634958 -0.5368893026
C -1.9305616691 0.1083894685 -0.4901571735
C -2.4805225503 1.3263260143 -0.0653504962
C -3.8696696137 1.4562504231 0.0306137956
C -4.7193420134 0.3982803794 -0.3113959956
C -4.1545853553 -0.8135749060 -0.7414166468
C -2.7731369104 -0.9625160870 -0.8367790247
O -5.0523088772 -1.7908137989 -1.0528742593
C -4.5312898310 -3.0465546812 -1.5021376090
O -6.0887891884 0.5530673312 -0.2611376220
C -6.6426829025 0.2035817414 1.0214479655
O -4.4969421382 2.5952078701 0.4404840489
C -3.6761594790 3.7087937695 0.8104540753
H 2.4952025083 -0.3122984418 2.3734203838
H 0.9797192275 0.2943844895 1.7101350577
H 1.3331372954 -1.4106012496 1.5931447620
H 1.8644642635 1.4950567443 -2.6989929674
H 8.1257830638 -1.1296519432 -1.6978663732
H 8.1864373916 -2.0557359819 -0.2602028784
H 3.1179170041 -2.2978345345 1.9329442569
H 4.7071381749 -2.8651971563 2.2101022822
H 0.2633093335 1.6073928659 0.3905397011
H 0.1029032123 1.7646629207 -1.3568331181
H -0.2678543611 -0.8312170962 -1.1558335651
H -1.8381359580 2.1563071876 0.1900771050
H -2.3308136449 -1.8953256408 -1.1650850206
H -3.9531922531 -2.9256328673 -2.4258741585
H -5.4019590070 -3.6742419020 -1.6946400540
H -3.9043360354 -3.5122787711 -0.7325029401
H -6.2275725315 0.8449128856 1.8083799374
H -7.7213133046 0.3607767007 0.9504618471
H -6.4380209952 -0.8479962192 1.2565259365
H -3.0206577623 3.4547429535 1.6518830077
H -3.0727306411 4.0542934178 -0.0372713920
H -4.3682815058 4.4961897310 1.1107466287
H 4.2242384927 0.8772130575 -3.1223972924
