46
CONF3
C -1.1629601115 0.1383688452 1.0513950617
C -1.7453507346 -0.2947961313 2.4052605901
C -3.2687624452 -0.4222917510 2.1448859221
C -3.4786452430 -0.1801821613 0.6194960988
O -4.5555562980 -1.0185160391 0.1739607980
C -3.8346236993 1.2196849520 0.3655787745
C -4.1669715181 2.3607246118 0.1547267630
C -2.0783141986 -0.5402960665 0.0143834942
C -1.9474853376 -2.0710408541 0.0086320047
C -1.7625219017 0.0191988720 -1.3725402962
C -0.2705337712 -0.1353769360 -1.7107828506
C 0.6363799691 0.4830666997 -0.6313914251
C 2.1234399742 0.3831005076 -0.9440149528
C 3.0753968880 0.2468135989 0.0819446392
C 2.6770805392 0.1354766875 1.5362582872
C 1.2357888199 0.5595264825 1.7972319640
C 0.3142950276 -0.0854851450 0.7664717582
C 4.4375500968 0.1930240164 -0.2312509568
C 4.8752988443 0.2778968716 -1.5482717227
O 6.2013451435 0.2297745882 -1.8902950276
C 3.9452709877 0.4246323694 -2.5756846823
C 2.5937814763 0.4765810283 -2.2613003764
H -1.3388835143 1.2221749538 0.9537446561
H -1.3227335877 -1.2566631558 2.7161783166
H -1.5254555661 0.4275974216 3.1953856889
H -3.6389164385 -1.4255630636 2.3723389902
H -3.8575432752 0.2863663312 2.7306533732
H -4.7073738556 -0.8292880131 -0.7621822096
H -4.4530888495 3.3704683212 -0.0327263790
H -0.9302170248 -2.3806862175 -0.2377799500
H -2.2057452256 -2.5140700310 0.9731927978
H -2.6184283251 -2.4967572093 -0.7425576180
H -2.0173444714 1.0861326767 -1.3958137600
H -2.3703048236 -0.4774214945 -2.1403678610
H -0.0935449162 0.3494992934 -2.6753126026
H -0.0070220216 -1.1925406424 -1.8419562007
H 0.3830841566 1.5570730363 -0.5847967466
H 2.8033549724 -0.9110178062 1.8492922509
H 3.3737755512 0.7207691055 2.1473137405
H 1.1400255226 1.6526125296 1.7311478681
H 0.9455835527 0.2693516830 2.8129930821
H 0.5247334643 -1.1664978341 0.7631540715
H 5.1652925774 0.0864112644 0.5714919817
H 6.7324363485 0.1244106907 -1.0898522025
H 4.2846388543 0.4987268614 -3.6039444301
H 1.8897734876 0.5990261460 -3.0772680044
