40
CONF2
C 2.6514241880 -3.2036331273 -0.9750807140
O 3.8066176195 -2.7391074731 -0.2367221302
C 3.8839135926 -1.4342300152 0.0422474739
C 4.9884163418 -0.9832290743 0.7526678740
C 5.0142621238 0.3850592537 1.0163949607
N 4.0529502792 1.2282684775 0.6252377295
C 3.0456032387 0.6719080719 -0.0490593067
N 2.9048178353 -0.6160025119 -0.3679439516
N 2.0519700046 1.5660756683 -0.4364239989
C 0.8596169294 1.3650925840 -1.1170396465
O 0.0535200184 2.2749258933 -1.2592040421
N 0.6672974578 0.0926191365 -1.6181974749
S -0.8617284414 -0.3987096624 -2.1685594189
O -1.2151520415 0.3647669692 -3.3669949401
O -0.7392688412 -1.8572329389 -2.2329655981
C -1.9628181789 0.0432094400 -0.8842609211
C -2.0384154511 -0.4730576531 0.4079341456
N -2.9632515490 0.1278795314 1.1565031353
C -3.5028365821 1.0684116522 0.3563923035
N -2.9091751842 1.0657006560 -0.9120518083
C -3.2745421440 1.9562508747 -1.8844386308
C -4.2621094279 2.8599273645 -1.6061020365
C -4.8941664233 2.8798761028 -0.3458087334
C -4.5183947831 1.9899578977 0.6326007825
Cl -1.0405345022 -1.7244192350 1.0455151495
O 6.0647547886 0.8558229455 1.6980636264
C 6.1060280929 2.2753227729 1.9766992767
H 2.7984521345 -4.2779761733 -1.0779357857
H 2.6098988850 -2.7305126337 -1.9601494083
H 1.7320270323 -2.9977079719 -0.4197050969
H 5.7755686342 -1.6493112325 1.0785574267
H 2.1886650693 2.5198252945 -0.1275375046
H -2.7534222754 1.8919542214 -2.8278811420
H -4.5474514024 3.5631534928 -2.3787407307
H -5.6774655311 3.6031575395 -0.1493007626
H -4.9742202070 1.9756273437 1.6153071523
H 6.1189346941 2.8478732063 1.0461729028
H 5.2473424032 2.5718052272 2.5837833786
H 7.0332819004 2.4236408509 2.5290045498
H 1.3238173399 -0.6389808050 -1.2982606426
