39
CONF5
C 3.0959473881 0.6739815461 -0.0958940784
C 2.0849720328 0.1476972080 -1.0711509658
C 1.3473630165 0.9034218341 -1.8913877878
C 1.1595923960 2.3830401424 -1.8083100790
C -0.1790948085 2.6710193260 -1.0712219851
C -0.3293625492 1.8347220719 0.1853662589
C 0.1427588491 2.2801823103 1.3522757743
C -1.0179397280 0.4958119099 0.0606846863
C -2.0781611454 0.0958585138 1.1229941604
C -1.6268116745 -1.3836786627 1.0025899074
C -0.2915827676 -0.8623592961 0.3711130482
C 0.3608491400 -1.6846421732 -0.7382820482
C 1.8408987903 -1.3475980691 -0.9961256072
C -2.5052729221 -2.1503491796 0.0157212247
C -1.4789332059 -2.1612078371 2.3006729886
H 3.2983977708 1.7393255926 -0.2103371782
H 2.7592199748 0.5034205468 0.9350134769
H 4.0421912686 0.1305145957 -0.2132842947
H 0.6466148299 0.3903742093 -2.5524144504
H 1.9707904178 2.8562730447 -1.2494016684
H 1.1291046589 2.8495494468 -2.8007961406
H -1.0133300564 2.4557871954 -1.7501196648
H -0.2283961757 3.7374516140 -0.8249758314
H 0.0721160453 1.6946475027 2.2646570575
H 0.6299751696 3.2480069518 1.4302627758
H -1.4622277616 0.4177670900 -0.9378756566
H -1.8277753070 0.5110227162 2.1034296485
H -3.1239683282 0.3267327062 0.8945828375
H 0.4265175689 -0.6902868307 1.1850792415
H 0.2919875199 -2.7494873946 -0.4756358999
H -0.2176869621 -1.5642929182 -1.6620013609
H 2.4418832954 -1.7600882620 -0.1767599885
H 2.1816635237 -1.8531722700 -1.9091988612
H -3.5009929379 -2.3026120314 0.4472719552
H -2.0874880526 -3.1363863287 -0.2146821029
H -2.6311003335 -1.6087168318 -0.9270907156
H -0.9874960914 -3.1261394122 2.1254326268
H -0.8782967052 -1.6023575710 3.0261025152
H -2.4569255559 -2.3632328209 2.7536958853
