54
CONF153
C 1.9761603001 -1.2788916925 2.9791191538
C 1.9003918075 0.2461264284 2.9665488391
C 2.5093912710 0.8032793396 1.7061543367
C 2.7534137066 -0.0271547248 0.6028338597
C 3.3233808979 0.4809804212 -0.5673372251
C 3.6504293413 1.8277666866 -0.6629354747
C 3.3931081058 2.6392351970 0.4301986545
C 2.8407733085 2.1574455704 1.6012348027
F 3.7000418421 3.9656750924 0.3484462971
O 2.4643507304 -1.3665848001 0.6045305577
C 1.5363673972 -1.8096699259 1.6260803037
C 1.4932228234 -3.3362466038 1.5533659695
C 1.2049441857 -3.8942885495 0.1561106888
N -0.1558580221 -3.5318392949 -0.2790387614
C -0.1954334938 -2.4392348363 -1.2613762713
C -1.5997332614 -1.8567396581 -1.4081149858
C -2.0657673532 -1.0965961317 -0.1542217453
C -3.4832723366 -0.5517027791 -0.2464394542
C -3.6008719244 0.4435053570 -1.3984423690
C -2.4380174231 1.4007792828 -1.3954713813
C -1.2805504457 1.1170494458 -0.6564293522
O -1.1342455620 -0.0162977024 0.1048255780
C -0.2054548456 2.0086113228 -0.6346081431
C -0.2588265664 3.1947176262 -1.3548396044
C -1.4029953906 3.4569138526 -2.0911606470
C -2.4817103305 2.5948334304 -2.1220370692
F -1.4685614307 4.6148196939 -2.8104097963
O -2.5551997340 -2.8660063655 -1.7623256148
O 0.4881702490 -3.7970943587 2.4622144767
H 1.3345247650 -1.6922796906 3.7609064937
H 3.0035501420 -1.6153546541 3.1682005875
H 0.8500681282 0.5617506092 3.0275007397
H 2.4066692505 0.6723532482 3.8389324366
H 3.4984220497 -0.1900377817 -1.4021488777
H 4.0866730286 2.2409933038 -1.5656696431
H 2.6644958031 2.8299525189 2.4356165195
H 0.5411941873 -1.4109090352 1.3767359320
H 2.4536440385 -3.7361531488 1.9041827364
H 1.9752288876 -3.5637843074 -0.5542532527
H 1.2733553583 -4.9853057107 0.2308553956
H 0.1499380659 -2.7710518913 -2.2549858869
H 0.4776513226 -1.6394342753 -0.9372819742
H -1.5817829920 -1.1611294061 -2.2558088894
H -4.1875518627 -1.3776190933 -0.3709476683
H -3.7152897003 -0.0573729926 0.7039262077
H -3.6352740064 -0.0893981359 -2.3578421350
H -4.5381005157 1.0048681205 -1.3258739451
H 0.6716400299 1.7590005010 -0.0470252879
H 0.5687344594 3.8960197650 -1.3493430657
H -3.3632581946 2.8482331400 -2.7036149815
H -0.3455981434 -3.6996604867 1.9698824161
H -1.9640947305 -1.7532845659 0.7170674792
H -2.6833778718 -3.4364566509 -0.9917075844
H -0.5867107261 -4.3492047401 -0.6937154906
