44
CONF9
C -0.8840608984 -2.3206991976 -2.3057577678
C -1.1202259875 -2.9079043708 -0.9228181758
N -1.6217089341 -1.8788674900 0.0334202283
C -2.9363342943 -1.9005635999 0.3097649452
C -3.5965135548 -0.9377117490 1.0337912926
C -2.8798096162 0.2033745261 1.5206695768
O -3.4378870615 1.1327569925 2.1680714691
C -1.4560438372 0.2259705435 1.2329051660
C -0.6941888225 1.3090829730 1.6966589281
C 0.6408981564 1.3642416763 1.4291215400
C 1.3380950626 0.3459742358 0.7343347981
C 0.5576154480 -0.7452763786 0.3306548028
C -0.8369235524 -0.8186151874 0.5005105530
F 1.2269906762 -1.7907039801 -0.2060344197
N 2.6822868710 0.4767902198 0.4646048141
C 3.6367800300 0.6554415804 1.5704792038
C 4.8120348361 1.4956070901 1.0980613124
N 5.4282025103 0.8469257046 -0.0661627108
C 4.4694051310 0.7489208469 -1.1772792738
C 3.2914643575 -0.1181191729 -0.7273331384
C 5.1441594140 0.1376775835 -2.3963545054
F 1.3413852854 2.4561011747 1.8044117304
C -5.0504744044 -1.1061765070 1.2665977740
O -5.6904249353 -2.0679082276 0.8704974407
O -5.6298360099 -0.1157320166 1.9510464965
H -1.8143056733 -1.9136806499 -2.7127848654
H -0.1302991529 -1.5298164230 -2.2926424441
H -0.5313416938 -3.1139332235 -2.9708755123
H -0.2271074967 -3.3753972893 -0.5135460481
H -1.8975207191 -3.6725384332 -0.9668126041
H -3.4925055268 -2.7433686347 -0.0859032853
H -1.1859092210 2.1155686405 2.2274316688
H 3.9980859605 -0.3340424599 1.8968914053
H 3.1425207096 1.1333986503 2.4171094689
H 5.5497505054 1.5658142640 1.9048591759
H 4.4485331391 2.5149591337 0.8718995992
H 6.2228821214 1.4001825249 -0.3726260119
H 4.0639530991 1.7446589113 -1.4428058916
H 2.5487149528 -0.1555399760 -1.5287143442
H 4.4429653475 0.0753136885 -3.2341378568
H 5.5100778956 -0.8690432794 -2.1685627612
H 5.9953258159 0.7501745605 -2.7110227319
H -4.9001178722 0.5595821059 2.1671052802
H 3.6570438392 -1.1388542274 -0.5317994767
