47
CONF25
C -7.3633777130 -2.1294381579 -1.2500317817
O -5.9373834319 -2.0539047543 -0.9673741479
P -5.4410540276 -2.0247033599 0.5614081538
S -6.2866702832 -0.7484192278 1.7459456623
O -5.5426222422 -3.5212614911 1.1061676664
C -4.9738210272 -4.6268778146 0.3392985773
O -3.8438467630 -1.8784221282 0.3236699630
C -3.2018277397 -0.6527282206 0.1452369408
C -2.0856225117 -0.4105625108 0.9379233058
C -1.3798984984 0.7733473675 0.7750971946
C -1.7825450788 1.6995110638 -0.1913479815
C -2.9018284892 1.4383502085 -0.9829500383
C -3.6231897013 0.2599832483 -0.8123890271
S -0.9486626170 3.2693824040 -0.3904153697
C 0.7779416195 2.8046734895 -0.3367996435
C 1.6631307746 3.6324061847 0.3569914146
C 3.0239652271 3.3423370150 0.3696051698
C 3.4791024288 2.2169083881 -0.2998240409
C 2.6129052521 1.3816577688 -0.9963398079
C 1.2580198201 1.6851428203 -1.0223910651
O 4.8539322942 1.9610977808 -0.3038388293
P 5.4883740296 0.7366765903 0.5511448047
S 4.6985297257 0.4184507206 2.2964339377
O 7.0411547503 1.1117338643 0.5001135220
C 7.5859365244 2.0894947634 1.4300075005
O 5.4112013928 -0.4459960172 -0.5210050428
C 5.7591999414 -1.8054384904 -0.1325815825
H -7.7861136296 -3.0443032162 -0.8248889810
H -7.4463267403 -2.1471155007 -2.3363250769
H -7.8706354070 -1.2509916249 -0.8430688452
H -5.2881423616 -5.5317682145 0.8580985180
H -5.3644978958 -4.6207426109 -0.6811692239
H -3.8841754748 -4.5512962846 0.3336552329
H -1.7874643440 -1.1401717671 1.6829295218
H -0.5173465494 0.9746688357 1.4015416911
H -3.2100649538 2.1489631539 -1.7427497254
H -4.4865589930 0.0503502366 -1.4335894201
H 1.2917798237 4.4970756088 0.8972147858
H 3.7245047961 3.9700031589 0.9096061714
H 2.9979144548 0.5154041276 -1.5233252318
H 0.5759486330 1.0478463507 -1.5751492156
H 7.4421379691 1.7476699818 2.4579728390
H 8.6479567166 2.1552334810 1.1957620644
H 7.1053353923 3.0600826766 1.2792570002
H 5.5888261284 -2.4143176913 -1.0197938192
H 6.8104987677 -1.8539311179 0.1631198338
H 5.1153789217 -2.1360608873 0.6861924327
