65
CONF4
C 0.6918687836 -0.9447056433 2.8289557866
C 0.7622339254 -1.8604236303 1.5993148756
C 0.9465249684 -3.3261262669 2.0149256459
C 1.8587101781 -1.4160996416 0.6536056577
C 3.2011611427 -1.4174496120 1.0518413976
C 4.2198332493 -0.9979499482 0.2030218598
C 3.9201142639 -0.5685016587 -1.0877267484
C 2.5985463389 -0.5578952088 -1.5181709965
C 1.6013833664 -0.9707582717 -0.6434634603
O 0.2689673808 -0.9739079289 -1.1023127113
P -0.5470929341 0.3897654077 -1.3103305603
O -0.3045399236 1.1803841810 -2.5327134526
O -2.0578754369 -0.1469500340 -1.2487965222
C -2.4702171913 -1.0081801478 -0.2061028935
C -2.8354161542 -0.4353502163 1.0060869858
C -3.2558639716 -1.2572710581 2.0450324650
C -3.3099153207 -2.6356131054 1.8521376870
C -2.9554660882 -3.1800629500 0.6228548649
C -2.5223320270 -2.3824610767 -0.4435378332
C -2.1540259343 -3.0019277599 -1.7755023936
C -1.0550211732 -4.0606372017 -1.6194565269
C -3.3982154027 -3.5975951109 -2.4509162072
O -0.2427596003 1.1400452999 0.0790162815
C -0.2824389124 2.5392025097 0.2133988722
C -1.4798041891 3.2075142062 -0.0168755434
C -1.5372067543 4.5826000118 0.1765986052
C -0.4009662359 5.2654605102 0.6048251573
C 0.7830902544 4.5718805252 0.8275853879
C 0.8788827937 3.1880378850 0.6342335896
C 2.1872600564 2.4576666076 0.8549295754
C 3.2512988696 2.9430629397 -0.1392725249
C 2.6780083477 2.6036567816 2.3009203750
H 1.6223273221 -0.9881690747 3.4054578117
H 0.5191571441 0.0946168682 2.5334373667
H -0.1291894115 -1.2579625828 3.4825355145
H -0.1908907972 -1.7830217715 1.0700472716
H 1.8664944110 -3.4599034986 2.5941437757
H 0.1047588570 -3.6450901805 2.6386516977
H 0.9945809649 -3.9817087514 1.1397652297
H 3.4486112923 -1.7515932582 2.0551151270
H 5.2486077911 -1.0079753265 0.5485912113
H 4.7078223762 -0.2409694867 -1.7581418932
H 2.3318128069 -0.2302673115 -2.5175333123
H -2.7819502608 0.6405305059 1.1300049008
H -3.5374788177 -0.8203132471 2.9974381695
H -3.6338908817 -3.2868277769 2.6576429801
H -3.0105144571 -4.2554880766 0.4829969522
H -1.4077315343 -4.9128246154 -1.0290233239
H -0.7560244808 -4.4356020812 -2.6036523889
H -0.1730709780 -3.6413363798 -1.1266425874
H -3.1354304809 -4.0043526212 -3.4329290120
H -3.8155405486 -4.4102077956 -1.8466708835
H -4.1746625853 -2.8383939679 -2.5871210732
H -2.3545618948 2.6543712085 -0.3440213736
H -2.4665012746 5.1129016561 -0.0032631950
H -0.4370907495 6.3384572560 0.7633367497
H 1.6638069726 5.1161965151 1.1558315696
H 2.0154672364 1.3946253346 0.6676903979
H 2.9159581720 2.8031604557 -1.1719225288
H 4.1783875258 2.3776484382 -0.0007969025
H 3.4719964748 4.0054793529 0.0105864606
H 2.9250427948 3.6451776906 2.5327392454
H 1.9179318507 2.2649953801 3.0117565464
H 3.5801336010 2.0003543857 2.4484695446
H -1.7683876358 -2.2100794867 -2.4230987893
