40
CONF38
C 0.1591633295 3.6209586859 -2.0932291568
C 0.8028310026 2.9330731717 -0.9155196750
O 1.3862379349 1.6838672941 -1.4193118084
P 1.9921853355 0.5735857685 -0.4536116813
S 2.0720308322 0.9095778990 1.4554349003
O 3.3689023237 0.2812567211 -1.2036341441
C 4.4704240707 -0.4511426101 -0.5681438097
C 4.1917381333 -1.9337193324 -0.4766556189
O 1.1837590218 -0.7958476613 -0.9079165810
C -0.1354604351 -1.0234423697 -0.6340107996
N -0.8854767738 -0.0312528665 -0.1913750241
C -2.1744128927 -0.3306280402 0.0613942064
N -2.7387089780 -1.5249327104 -0.1203206466
C -1.9542753228 -2.5205868947 -0.5880478709
C -2.6037257356 -3.8517174435 -0.7907390008
C -0.6099627436 -2.3119104750 -0.8585779406
C -3.0415542288 0.7890317130 0.5834928562
C -3.2386375110 1.8591914395 -0.4984443248
C -2.4489937964 1.3968114251 1.8597581091
H 0.8996838997 3.8573673434 -2.8620591088
H -0.2989262317 4.5541096192 -1.7515457339
H -0.6206068284 2.9910129280 -2.5304541029
H 1.6065139789 3.5331351443 -0.4787800890
H 0.0738301468 2.6828103208 -0.1400892506
H 4.6524076727 -0.0082160842 0.4160845477
H 5.3221879216 -0.2413246729 -1.2179269834
H 5.0889526701 -2.4349884309 -0.0996859733
H 3.9499845124 -2.3472186528 -1.4597533962
H 3.3682750381 -2.1453750417 0.2112611090
H -3.0381085782 -4.2004974223 0.1516555618
H -1.8922758071 -4.5940551570 -1.1560524045
H -3.4252559502 -3.7568939728 -1.5084107356
H 0.0410383502 -3.0974145030 -1.2220330950
H -3.6704255057 1.4308193029 -1.4084642325
H -3.9111237166 2.6403870995 -0.1306727095
H -2.2812931404 2.3229461738 -0.7547396976
H -2.3037498355 0.6349907844 2.6322209427
H -1.4813226672 1.8634822847 1.6516513093
H -4.0132606974 0.3425343797 0.8174648540
H -3.1239858772 2.1630684303 2.2534078131
