46
CONF29
C -3.6739188978 -1.8879714433 0.8384595211
C -2.4058678421 -2.0049700250 1.6505838035
C -1.0880283830 -2.2884837861 0.9624228741
C -1.3447667608 -0.9076720453 1.5821679402
C -1.5488351924 0.3097533275 0.7762883293
O -1.8847413260 0.3810419787 -0.3900635144
O -1.3191611165 1.4023296222 1.5544300932
C -1.4789155469 2.6943994173 0.9338629625
C -0.2081532047 3.1861732610 0.2879028984
C 0.9016339509 2.3635558988 0.1359919358
C 2.0454657399 2.8623306263 -0.4852180721
C 2.1111374277 4.1741888879 -0.9355363042
C 0.9978674899 4.9952642738 -0.7657772525
C -0.1579447971 4.5085850302 -0.1663367616
O 3.1829835562 2.0838171743 -0.6118830508
C 3.0290219864 0.7604154159 -0.9955162128
C 3.8635720185 -0.1767650965 -0.3959078525
C 3.7922499435 -1.5072948829 -0.8025683936
C 2.8933564266 -1.8961758576 -1.7931058995
C 2.0661736417 -0.9426345792 -2.3846743068
C 2.1286395715 0.3903169193 -1.9931093926
C -1.0142432148 -2.5040194729 -0.4843417115
C -0.3313763066 -3.4899882987 -1.0664578949
Cl -0.3390444346 -3.7354371220 -2.7945189569
Cl 0.6348080342 -4.6605611589 -0.2065125526
C -2.6066389939 -2.6290688119 3.0131152772
H -4.4240078893 -1.3275387249 1.4065568308
H -3.5235018808 -1.3850941488 -0.1165283597
H -4.0743685778 -2.8891238709 0.6459793952
H -0.3906024246 -2.8783429075 1.5490069103
H -0.8177349501 -0.7244096150 2.5121529578
H -1.7750205289 3.3631561434 1.7464210234
H -2.2890195923 2.6501910642 0.1986078105
H 0.8940815168 1.3410698815 0.4961573018
H 3.0170464996 4.5364652130 -1.4094025730
H 1.0344629379 6.0229137529 -1.1132844290
H -1.0226830910 5.1546368581 -0.0446283794
H 4.5558785860 0.1415372160 0.3765547409
H 4.4407544510 -2.2422896446 -0.3359290605
H 2.8359577218 -2.9343389372 -2.1030705965
H 1.3681596988 -1.2350943403 -3.1623869521
H 1.4890937001 1.1354112591 -2.4546039186
H -1.5647021866 -1.8395143319 -1.1403206474
H -3.0311006307 -3.6331697952 2.9037752711
H -3.3037333985 -2.0273177536 3.6065584821
H -1.6642324187 -2.7102765659 3.5617102991
