82
CONF13
C -3.9665811336 3.5540707058 -0.4145163030
C -4.1488306010 2.4552359617 -1.4253430708
C -4.2414402984 2.7220834089 -2.7304008265
C -4.2818118460 1.0447854455 -0.9023680671
C -5.6578575598 0.8420535791 -0.1704551180
C -5.3437503987 0.2138135257 1.2050919333
C -3.9804529988 -0.4592194779 1.0033971843
C -3.2468274825 0.6087214299 0.1605618336
C -1.8574270393 0.1470539379 -0.2793846385
C -1.1401676891 1.1291924117 -1.2076858893
C 0.2443329527 0.6285738386 -1.6374555908
C 1.1227824866 0.1653874411 -0.4644861931
C 2.5972350306 -0.1979592666 -0.8779698856
C 3.2317542534 1.0621591864 -1.5129896579
C 4.7513032703 0.9694278446 -1.6430423886
C 5.4166505662 0.7018559124 -0.3019565890
C 4.9167886636 -0.5897255011 0.3762347716
C 3.3609305062 -0.4944453933 0.4495854903
C 2.7036900440 -1.6530800848 1.2004223886
C 1.2709396317 -1.3025320396 1.6012835969
C 0.3715869640 -0.8816226498 0.4209327072
C -0.9680523712 -0.1964981272 0.9606236758
C -1.7225936740 -1.1386114783 1.9402422559
C -3.1623367466 -0.7068690041 2.2694356382
C -0.6708675678 1.0911313222 1.7644539563
C 0.0434756211 -2.1611399258 -0.3810029960
C 5.4441974639 -1.8388683919 -0.3451907037
C 5.4908615769 -0.6027474128 1.8069118655
O 6.8421823368 0.6094112693 -0.4409120143
C 2.6733426755 -1.3363422549 -1.9169606020
C -4.1937334034 -1.7733139368 0.2217746863
O -5.0066267836 -2.7156345033 0.9296433714
H -2.9493637482 3.5453581750 -0.0049756043
H -4.1399146503 4.5349212865 -0.8629805545
H -4.6479996234 3.4354870058 0.4361607661
H -4.1988862294 3.7396150124 -3.1071348584
H -4.3599828014 1.9271778847 -3.4613596996
H -4.2246830851 0.3686164910 -1.7643265161
H -6.1952521646 1.7892333521 -0.0708979815
H -6.2999105668 0.1883033794 -0.7676491457
H -5.2498018780 0.9947673102 1.9704268192
H -6.1131996244 -0.4893461380 1.5353540406
H -3.1233281070 1.4667834287 0.8346235347
H -1.9946709119 -0.7776373673 -0.8524313259
H -1.7519704408 1.2973011852 -2.0996859390
H -1.0514163664 2.1093167662 -0.7232551346
H 0.7463072196 1.4331668614 -2.1833710265
H 0.1104791617 -0.1843864124 -2.3602142742
H 1.2653289858 1.0414843708 0.1806189621
H 2.9821145112 1.9373343952 -0.8950810366
H 2.8014292382 1.2421911831 -2.5039015191
H 5.0485470357 0.1891045732 -2.3526581329
H 5.1343071826 1.9148238928 -2.0523650680
H 5.1674292041 1.5362919305 0.3806420476
H 3.1798643711 0.4037762235 1.0666301106
H 3.2634114995 -1.8816789594 2.1124334904
H 2.7282694743 -2.5689805246 0.6000534938
H 1.3303096315 -0.4899294888 2.3330256442
H 0.8160589258 -2.1577959648 2.1159169848
H -1.7524403800 -2.1567305006 1.5426708859
H -1.1541170343 -1.2010314725 2.8752174688
H -3.6331450721 -1.4649192091 2.9108040938
H -3.1603433162 0.2130579977 2.8671090965
H -0.0039947931 0.8895354535 2.6059852010
H -1.5887684156 1.4990419253 2.1926548712
H -0.2232581799 1.8882060311 1.1715968129
H -0.7123944150 -2.7676846809 0.1231915349
H 0.9279279476 -2.7907236082 -0.4762014124
H -0.3173614744 -1.9629664487 -1.3909801725
H 4.9929386441 -2.7412793732 0.0787830046
H 5.2447861765 -1.8350608443 -1.4170781283
H 6.5264746067 -1.9095068313 -0.2123454044
H 5.3426122725 -1.5699866628 2.2947687127
H 5.0232997123 0.1699380146 2.4285114735
H 6.5663871252 -0.4122785475 1.7719546855
H 7.1499398224 1.4220895173 -0.8558640703
H 3.5572231486 -1.2325382828 -2.5489228780
H 2.7199478531 -2.3300136954 -1.4700985720
H 1.8100956236 -1.3150605635 -2.5865173313
H -4.7344515380 -1.5751394627 -0.7079172560
H -3.2378130013 -2.2363869669 -0.0547660591
H -4.5097203555 -3.0222093347 1.6953707405
