82
CONF541
C -5.2960469661 -1.0503855064 -2.0906518924
C -5.1518187416 0.3716963827 -1.6133317382
C -6.2322787945 1.1434102847 -1.4576556685
C -3.7100676122 0.8022463060 -1.4158810881
C -3.4295274684 2.3048422069 -1.1393375865
C -2.6530771857 2.3876073714 0.1944701485
C -2.9163552145 1.0450402122 0.9023197577
C -2.9916449097 0.0310445969 -0.2606977903
C -1.6270032893 -0.5571488593 -0.7129790194
C -0.7450882095 0.3712952392 -1.5503644696
C 0.4140951414 -0.4070160053 -2.1612312758
C 1.3669954053 -1.0299700212 -1.1246235744
C 2.6159132915 -0.0978531342 -0.7961858186
C 2.2664448431 1.3847634942 -0.5550676940
C 3.4807791375 2.2493493692 -0.2021049688
C 4.2181631056 1.7406741748 1.0336296265
C 4.6170103687 0.2478316577 0.9090938367
C 3.4192848863 -0.6537844163 0.4267301646
C 2.4621475472 -1.0296914463 1.5646677619
C 1.4949737617 -2.1319221242 1.1502947872
C 0.5462904305 -1.8057582070 -0.0187806384
C -0.8226716320 -1.1364066836 0.4830868391
C -0.5958983223 0.0095583548 1.4913932520
C -1.8812887600 0.6879136000 1.9812485197
C -1.6882563006 -2.2083316623 1.1811335531
C 0.1888060448 -3.1747315081 -0.6610115057
C 5.8182670831 0.1597955275 -0.0584348330
C 5.1632054855 -0.2383779195 2.2634784072
O 3.4601814406 2.0350845751 2.2279035536
C 3.4694860170 -0.1910152628 -2.0899045461
C -4.2930812917 1.1903012487 1.5860352806
O -4.8850563644 -0.0385690746 2.0303091990
H -4.8466713980 -1.7579232113 -1.3842717913
H -4.7670651577 -1.1849910559 -3.0427448148
H -6.3445786284 -1.3233184540 -2.2318065125
H -6.1791113401 2.1785488007 -1.1373035457
H -7.2245731411 0.7451501885 -1.6508206663
H -3.2268572957 0.5107036786 -2.3568934009
H -2.8528096944 2.7425306718 -1.9599905027
H -4.3571158749 2.8774299715 -1.0765861262
H -1.5814181708 2.5224367643 0.0236068183
H -2.9819901606 3.2320014629 0.8135760593
H -3.6062571245 -0.8131922996 0.0592608666
H -1.8932682350 -1.3955170469 -1.3763657136
H -1.3228084135 0.8193306087 -2.3650840959
H -0.3663887083 1.2022883813 -0.9526271876
H 0.9628315760 0.2418072807 -2.8504198298
H -0.0080729370 -1.2100537704 -2.7805375729
H 1.8766839356 -1.8524964279 -1.6421181016
H 1.5282969865 1.4786740241 0.2478079744
H 1.7855284257 1.7998101751 -1.4477413323
H 4.1780050560 2.2979663967 -1.0440726992
H 3.1584264531 3.2798220972 -0.0118554527
H 5.1430427709 2.3175242668 1.1671170294
H 3.8753323473 -1.6012975752 0.0972092875
H 3.0324332451 -1.4076169047 2.4161130388
H 1.9182704070 -0.1555629622 1.9289917118
H 0.9182167306 -2.4689696151 2.0195760998
H 2.1096145794 -2.9931960955 0.8501633019
H -0.0721802233 -0.3780241255 2.3710135093
H 0.0546488806 0.7668580831 1.0503294029
H -2.3484429776 0.0374600207 2.7308941883
H -1.6149601478 1.6060930813 2.5220795177
H -2.1169927501 -2.9108059846 0.4613833598
H -2.5239485430 -1.7522260669 1.7131318612
H -1.1134702679 -2.7788584982 1.9170109372
H -0.1605198500 -3.8837385545 0.0935809362
H 1.0817881824 -3.6088585373 -1.1207393634
H -0.5830169366 -3.0981307500 -1.4323753277
H 5.6426793117 0.6275030907 -1.0248257501
H 6.0820636630 -0.8884322751 -0.2352068133
H 6.6859713341 0.6534265518 0.3925739136
H 4.4543655057 -0.1053922333 3.0806551333
H 6.0660244090 0.3292858583 2.5161091612
H 5.4382136162 -1.2982474840 2.2044596729
H 2.5621051887 1.7040485693 2.1068022250
H 2.8300693096 -0.2096544472 -2.9758458081
H 4.0658031381 -1.1094339364 -2.0940501197
H 4.1466060678 0.6519411339 -2.2201566921
H -4.1829560827 1.8881443847 2.4310772512
H -5.0153283245 1.6186360022 0.8876196075
H -4.3891034734 -0.3549757187 2.7947465907
