37
CONF12
C -2.0153079990 -0.3217956006 -1.0944442241
Si -0.3362005790 -0.2818338461 -0.2712985057
C -0.3517195339 -1.5915489451 1.1261441459
N -1.5792301459 -1.5344658392 1.9112617918
C -2.6117332916 -2.3972419100 1.9222496708
N -3.5878508835 -1.9411774516 2.7055255961
C -3.0816836929 -0.7612719415 3.1521789420
N -1.8680213094 -0.4669893759 2.6938506153
C 1.0233887509 -0.8031683069 -1.4608096895
C 0.9723436220 -2.0694260472 -2.0672153498
C 1.9492875897 -2.4874705218 -2.9656800376
C 2.9865815248 -1.6144054373 -3.2503355615
F 3.9472768431 -2.0133831385 -4.1233877292
C 3.0860399337 -0.3554314920 -2.6848660300
C 2.0945732896 0.0398877386 -1.7892200843
C 0.0462613657 1.4101423702 0.4389007065
C -0.7496254194 2.5242828831 0.1383444778
C -0.4709927733 3.7831534938 0.6669085135
C 0.6227504291 3.9080795126 1.5052754823
F 0.9030542648 5.1290033383 2.0297712098
C 1.4440555011 2.8422867261 1.8352709239
C 1.1434386520 1.5957332578 1.2950380078
H -2.2236658042 -1.3307616439 -1.4675836529
H -2.0586835744 0.3681911688 -1.9433312109
H -2.8067246951 -0.0497497412 -0.3869746400
H -0.2990560755 -2.5919713212 0.6836418624
H 0.5081688481 -1.4813772713 1.7964864493
H -2.6074164268 -3.3236564870 1.3626402177
H -3.6077881965 -0.1016995090 3.8311349851
H 0.1554870731 -2.7515294141 -1.8436096573
H 1.9134165424 -3.4643684377 -3.4359888293
H 3.9165409798 0.2940661019 -2.9403849431
H 2.1637311055 1.0274372525 -1.3419076586
H -1.6089911255 2.4199788176 -0.5176625489
H -1.0854602700 4.6474400757 0.4385199779
H 2.2901086602 2.9894078117 2.4980776518
H 1.7836480108 0.7556323476 1.5534788973
