47
CONF2
C -1.4660704313 2.6938636602 -0.3142682401
C -2.5104975251 1.8049379049 0.3570893371
C -3.8277500441 1.7978144015 -0.4184925366
C -4.9011144203 0.9192535142 0.1938235497
O -4.5056942343 -0.4920382123 0.1621659175
C -4.7364395671 -1.1496849280 -0.9757680557
O -5.2884030980 -0.6925591480 -1.9563463586
C -4.2942737309 -2.6113966230 -0.9079324693
C -5.4810387026 -3.4755268797 -0.5055210297
O -3.2657349582 -2.8467403266 0.0543130947
C -2.0337409166 -2.2907190298 -0.1641540075
C -1.6861119765 -1.5417286333 -1.2891975446
C -0.3960129936 -1.0193973618 -1.3933645375
C 0.5231437259 -1.2539332003 -0.3874941585
C 0.1908774590 -2.0109302284 0.7306064956
C -1.0905991838 -2.5243647522 0.8428885009
O 1.8343172741 -0.7901001860 -0.5622322406
C 2.2861383836 0.2131698417 0.2360636453
N 1.4538977270 0.8114098079 1.0735750030
C 1.9396614481 1.8044500547 1.8302431505
C 3.2610008341 2.2196215451 1.7663063618
C 4.1273542864 1.5748771487 0.8732453765
C 3.6390866220 0.5533911683 0.0894904950
C 3.7812236100 3.3123101912 2.6391881697
F 2.8015429090 3.9467383215 3.3202803427
F 4.4484012569 4.2578937402 1.9254564388
F 4.6669542479 2.8459432617 3.5634204533
H -0.5346632167 2.7174497519 0.2585035509
H -1.8321709897 3.7220804293 -0.4124656328
H -1.2313931338 2.3245259555 -1.3191676970
H -2.6981242548 2.1546422469 1.3806807739
H -2.1251284684 0.7811100793 0.4373966234
H -3.6544649901 1.4862253340 -1.4562928940
H -4.2335153589 2.8175215337 -0.4621011629
H -5.0332417844 1.1300548728 1.2578890580
H -5.8570659137 1.0226828167 -0.3250599552
H -3.9501553699 -2.8907681026 -1.9118547238
H -5.1826162337 -4.5265141677 -0.5084049571
H -5.8278732503 -3.2021032101 0.4947945594
H -6.2967129912 -3.3370673585 -1.2189068753
H -2.3916189238 -1.3450514172 -2.0878195430
H -0.1121189403 -0.4286569903 -2.2577849635
H -1.3781646371 -3.1137185474 1.7071081399
H 1.2367567444 2.2818006215 2.5078745841
H 5.1678991104 1.8743595721 0.7980326738
H 4.2633964612 0.0220898673 -0.6188956136
H 0.9281695994 -2.1902223653 1.5059805451
