48
CONF84
C -3.8526359996 -1.5157766501 -2.6814254926
O -3.4136879019 -0.5978178972 -1.6622820141
N -3.2282252230 -1.2838619754 -0.4788648270
C -2.8202249468 -0.5274470570 0.4831461069
C -2.7172381239 -1.1447350426 1.8137271106
C -3.6713315984 -2.0766999322 2.2441285627
C -3.5764437108 -2.6699927178 3.4961886037
C -2.5279918772 -2.3371605609 4.3510813077
C -1.5672718006 -1.4155617375 3.9450281825
C -1.6715455418 -0.8407075446 2.6907155653
O -0.7055873767 0.1151800505 2.3401061325
C 0.2808601075 -0.2534381457 1.4943831697
C 1.2615204812 0.6927660440 1.2215372238
C 2.2564987123 0.3343633252 0.3231559654
N 2.2859064465 -0.8669771090 -0.2449478381
C 1.3110996940 -1.7071964259 0.1026885129
N 0.3062984956 -1.4629786972 0.9449776512
O 3.1911769217 1.2687591750 0.0324461546
C 4.2677465458 0.8826086359 -0.7646443731
C 4.2943750099 1.2859650338 -2.0905336501
C 5.4002871084 0.9820273139 -2.8780073078
C 6.4701765669 0.2765024534 -2.3338860472
C 6.4451582615 -0.1254557300 -1.0014615482
C 5.3407725503 0.1832491186 -0.2163652735
Cl 5.2922732127 -0.3023006475 1.4623056833
F 1.2385804631 1.9070785498 1.7937783397
C -2.5264005242 0.9227159875 0.3093234943
N -3.2315449142 1.7287272890 1.0217852794
O -3.0213648228 3.1078993414 0.8147919866
C -2.4798042520 3.4052792579 -0.4853952247
C -1.2202943073 2.6059776363 -0.6925241612
O -1.5502032889 1.1948735021 -0.5770951979
H -3.0865723277 -2.2744434531 -2.8687714752
H -4.7945684354 -1.9898735043 -2.3888236641
H -3.9997619290 -0.9020959514 -3.5713966763
H -4.4993502267 -2.3110780073 1.5844513956
H -4.3319892647 -3.3815342841 3.8119834568
H -2.4555614769 -2.7905454795 5.3339583283
H -0.7335687066 -1.1453643387 4.5841172614
H 1.3359846262 -2.6961065327 -0.3506440150
H 3.4453029308 1.8321202762 -2.4876727810
H 5.4226901202 1.2965453241 -3.9156597480
H 7.3346585494 0.0366936403 -2.9435668441
H 7.2758214644 -0.6712534223 -0.5683773893
H -2.2756418098 4.4780854419 -0.4869214912
H -3.2252326170 3.1618400761 -1.2543709596
H -0.8031959221 2.7394436175 -1.6925702547
H -0.4699484269 2.8517009547 0.0651287945
