29
CONF51
C -1.2724906302 1.4742421955 -3.8888401640
C -0.2103461330 1.3102890270 -2.8318954416
O -0.8895053074 1.3196420635 -1.5264116633
P -0.0520596489 1.2526187273 -0.1741034862
S 1.3934229521 2.5038114189 0.1097107001
O -1.1747431158 1.3046949988 0.9419303924
C -2.3055429706 0.3545293661 0.9445974075
C -2.9075355390 0.3875491252 2.3260704227
O 0.4351350939 -0.3333862420 -0.2833106653
C 1.2997487908 -0.8996798594 0.5998528133
N 1.1590809622 -0.6441872935 1.8882396146
C 1.9635355703 -1.2131268141 2.7638955395
C 2.9713564849 -2.1035291218 2.3874016604
C 3.1255261451 -2.3830890050 1.0336161817
C 2.2823571156 -1.7710523684 0.1202564529
Cl 2.4467214848 -2.0775554097 -1.5808326757
Cl 4.0218010033 -2.8556372286 3.5456904190
Cl 1.7076376477 -0.8066553808 4.4417155148
H -1.8042038263 2.4208893479 -3.7610264602
H -0.7949675397 1.4743444498 -4.8731361690
H -1.9912529112 0.6512997363 -3.8519849779
H 0.5109039068 2.1334932268 -2.8439894446
H 0.3218800096 0.3587761420 -2.9304808230
H -1.9264478490 -0.6406531495 0.6922495705
H -3.0112154306 0.6818262656 0.1761729487
H -3.2554338210 1.3935405889 2.5751299534
H -3.7637274176 -0.2931375167 2.3561000770
H -2.1787161091 0.0644918895 3.0742382179
H 3.8990813680 -3.0643494707 0.6992465940
