24
CONF2
C -2.0969106528 -0.5342355937 -1.2303854532
N -1.6817159507 -0.5570670152 0.1693134282
C -0.5042273363 -0.0223462059 0.6695855972
C -0.4834380696 -0.2828074780 2.0315256896
C -1.6590010764 -0.9837483479 2.3695367383
C -2.3759251728 -1.1307641569 1.1943402398
Br -4.0334617296 -1.9582900535 0.9383874435
Br -2.1699206575 -1.5914507604 4.0674338659
Br 0.8851107686 0.2480499994 3.2036523406
C 0.4536595189 0.6914917426 -0.1439799576
C 0.3649354595 1.9553615831 -0.7074322281
C 1.5730401606 2.2297043836 -1.3802885964
C 2.3776620663 1.1168727224 -1.2045671752
N 1.7052668080 0.1880123719 -0.4649023345
C 2.2110173279 -1.1298705101 -0.0919697556
Br 4.1211139907 0.8325688135 -1.8193260438
Br 2.0224764764 3.7913217695 -2.3141830199
Br -1.1202059570 3.0950736569 -0.5530556737
H -2.9987571542 0.0726279299 -1.3472811467
H -1.2874582783 -0.0987932853 -1.8169765211
H -2.2893732080 -1.5525010741 -1.5765593198
H 2.5355011408 -1.6679560850 -0.9856655388
H 1.4019823282 -1.6802855608 0.3890122389
H 3.0486285975 -1.0309689461 0.6037846823
