29
CONF28
C -5.0282974714 -1.4499606478 -1.3897815069
C -3.6366372367 -0.9096145786 -1.5994598113
O -3.2561219194 -0.2011349072 -0.3658397109
P -1.8671502732 0.5662413497 -0.2739563420
S -1.4253119425 1.8471524459 -1.6606809658
O -1.9332519319 1.0395306183 1.2373186177
C -1.3848483335 2.3209674281 1.7142205825
C -0.8899381577 2.1038655687 3.1213499958
O -0.8744601962 -0.7708616378 -0.2491927168
C 0.4659483192 -0.6858418299 -0.0781204439
N 0.9833919286 0.4095958097 0.4485519336
C 2.2847717187 0.4991133268 0.6418765808
Cl 2.8680273096 1.9910537338 1.3367782530
C 3.1624558086 -0.5349431356 0.3170688494
Cl 4.8742244329 -0.4138911126 0.5787733056
C 2.6289801313 -1.6958203324 -0.2362200021
C 1.2625815043 -1.7778064681 -0.4424446245
Cl 0.5519112172 -3.2021462137 -1.1365732471
H -5.7367955653 -0.6380250664 -1.2052711974
H -5.3391659698 -1.9836561683 -2.2927541722
H -5.0537129814 -2.1475069006 -0.5484026199
H -2.9096094053 -1.7100162424 -1.7699003249
H -0.5795864843 2.6333812735 1.0457878904
H -2.1998817988 3.0483578263 1.6686405858
H -0.0831248759 1.3657747386 3.1367747890
H -0.5018899517 3.0514358275 3.5076958143
H -1.6982275683 1.7676324683 3.7762992657
H 3.2764466470 -2.5220561141 -0.5058284150
H -3.5951904516 -0.1960661702 -2.4282553542
