48
CONF4
C 3.1199343399 0.1041713166 1.3089394647
C 2.7350701656 1.2874653292 0.3796489845
C 2.3761485223 0.5989778488 -0.9620395761
C 2.5921484118 -0.9113092669 -0.6699458742
C 1.3315523301 -1.5965798404 -0.1305535546
C 0.7846027645 -0.9306458661 1.1416646123
C 1.9185935758 -0.4725993128 2.0668620814
O -0.0373621884 0.2228001838 0.8267221126
C -1.4415463066 -0.0147324581 0.9140835021
C -2.1556233230 1.3175903531 0.8443809912
C -3.4921501236 1.3841801042 1.2492076870
C -4.1985520832 2.5790991709 1.1652168059
C -3.5759681677 3.7259166588 0.6718820110
C -2.2449706086 3.6651271700 0.2687387707
C -1.5353823261 2.4672048429 0.3546907210
C -1.9292299817 -0.9578340871 -0.1765256047
C -1.9078313192 -0.5572197512 -1.5156595782
C -2.2943996156 -1.4366659129 -2.5200069857
C -2.7159683375 -2.7278369891 -2.1960439480
C -2.7490404703 -3.1299521899 -0.8641509087
C -2.3560886239 -2.2461066811 0.1413250349
N 3.6178753941 -0.9563297415 0.3999136275
C 4.9575125513 -0.6497029710 -0.1145487470
H 3.9031735498 0.3752302809 2.0257277197
H 3.5846867259 1.9652870246 0.2564327256
H 1.9052711168 1.8661778881 0.7904704522
H 1.3503142849 0.8029664648 -1.2768232660
H 3.0426389805 0.9314131234 -1.7632356004
H 2.9515488018 -1.4574334370 -1.5493086734
H 1.5839601772 -2.6373306276 0.1073901084
H 0.5500230803 -1.6113598234 -0.8957341128
H 0.1573657704 -1.6524319509 1.6823092124
H 2.2665721387 -1.3397026852 2.6406645016
H 1.5219990668 0.2600712323 2.7782252319
H -1.6711339785 -0.4796678573 1.8871113829
H -3.9800300097 0.4908064624 1.6316349855
H -5.2345418184 2.6173327219 1.4880756544
H -4.1255744450 4.6597859542 0.6057123419
H -1.7522113898 4.5537774762 -0.1145268765
H -0.4978129955 2.4248328693 0.0422914905
H -1.5774232311 0.4469465206 -1.7679358681
H -2.2704437062 -1.1178919140 -3.5577461879
H -3.0193391713 -3.4140207927 -2.9807128247
H -3.0776845499 -4.1319510873 -0.6052653724
H -2.3752269090 -2.5620349726 1.1812164364
H 5.0326443314 0.3203130178 -0.6342326621
H 5.6704172682 -0.6432094597 0.7169752908
H 5.2614824163 -1.4329243336 -0.8173308493
