25
CONF9
C 3.2427296527 0.2404231815 0.1795065235
C 2.2530866318 0.0694068371 1.1244659117
C 1.2712585631 -0.9075096858 0.9281871783
C 1.2804530301 -1.7131521877 -0.2120514295
C 2.2741951130 -1.5468675185 -1.1562564860
C 3.2763941887 -0.5658823071 -0.9826592714
N 4.2481973076 -0.3962619682 -1.9116012005
S 0.0357736141 -1.1350592994 2.1581287663
O 0.6326636278 -1.0557783914 3.5029860490
O -0.8038378677 -2.2873225272 1.7968595885
N -0.9022766556 0.3214886759 2.1054173359
C -1.8788004902 0.5119125502 1.1440877546
N -1.7901070352 0.1013348531 -0.0889941890
C -2.9057815209 0.4760204367 -0.8058612706
C -3.8494848810 1.1860819479 -0.1321312780
S -3.3575959927 1.3988506395 1.5250484138
H 4.0073109716 0.9972418336 0.3256804851
H 2.2409351530 0.6921225750 2.0131609332
H 0.5121061672 -2.4639904161 -0.3560107466
H 2.2890751464 -2.1728656644 -2.0432655351
H 4.9759411067 0.2854924313 -1.7799657337
H -2.9764995489 0.2052149297 -1.8533765117
H -4.7786186361 1.6026244868 -0.4957932280
H 4.2897302954 -0.9825763498 -2.7276316459
H -1.1112799488 0.6455574837 3.0447741052
