32
CONF8
C 2.4344714288 1.2660949643 -1.6354697127
C 2.2043732396 -0.0973457316 -1.6892233886
C 1.8155624457 -0.8078770809 -0.5476405631
C 1.6964064993 -0.1127737670 0.6708983149
C 1.9428024763 1.2469167184 0.7506636182
C 2.2968809192 1.9153314519 -0.4140707714
N 2.5348618912 3.3640882769 -0.3411318273
O 2.4346167950 3.9086827226 0.7535680663
O 2.8184813648 3.9485773555 -1.3815387110
Cl 1.2009363942 -0.9594723514 2.1162439573
N 1.5366216397 -2.1870803212 -0.6557336194
S 0.0507519156 -2.6041607540 -1.4432475357
O -0.0776292030 -4.0521401877 -1.2677841351
O 0.0927432355 -1.9834376732 -2.7691577275
C -1.1936893608 -1.7702545336 -0.4637272368
C -1.3502883669 -0.3999026051 -0.6353283911
C -2.1948018109 0.3021981832 0.2181858574
C -2.8939252525 -0.4003343157 1.2088012762
C -2.7513669233 -1.7779265280 1.3489723161
C -1.8812542542 -2.4706784089 0.5198839400
Cl -3.9724892396 0.4180316750 2.3053488504
C -2.3083951497 1.7984166443 0.0628067364
F -1.5289030330 2.2532454188 -0.9413549297
F -3.5740698428 2.1893249425 -0.2119965253
F -1.9198765455 2.4491508864 1.1850715419
H 2.7298327492 1.8153284480 -2.5197447263
H 2.3210507688 -0.6364971735 -2.6211302419
H 1.8411861181 1.7791884903 1.6873445776
H 1.5657373672 -2.6776143505 0.2382869720
H -0.8186594057 0.1230270703 -1.4204864624
H -3.3097082479 -2.3011987955 2.1161668826
H -1.7422604114 -3.5389081465 0.6413676959
