38
CONF27
C 1.9269527450 -1.3417889514 -2.6941351228
N 2.0538629313 -0.1184865665 -1.9007703157
C 3.1950521805 0.6654129086 -2.3750085902
C 0.8351443032 0.6956568290 -1.9685388803
C -0.3878234327 0.0423320252 -1.3274784776
C -0.1545771647 -0.3581518185 0.1377253687
C -1.3087048888 -1.1234169182 0.7621279409
C -2.6251525916 -1.0245412490 0.3071104032
C -3.6599736904 -1.7159716998 0.9349326434
C -3.3648806419 -2.5120772985 2.0321818724
Cl -4.6661958681 -3.3924574236 2.8336354282
C -2.0663137857 -2.6363599288 2.5128295211
C -1.0504790920 -1.9385276310 1.8703512773
C 0.1822058637 0.8530405894 0.9924896338
C -0.7436270140 1.8874711953 1.1600980411
C -0.4008636400 2.9850333013 1.9357962580
C 0.8579222125 3.0201126476 2.5308275610
C 1.7122468983 1.9461521069 2.3190658918
N 1.3936477063 0.8800517617 1.5679450858
H 2.8690962861 -1.8979672814 -2.6568768033
H 1.1411248219 -1.9863368017 -2.2890506671
H 1.6905672061 -1.1319996677 -3.7558503389
H 4.1113919032 0.0711728513 -2.2951710515
H 3.3100416404 1.5632360880 -1.7581611415
H 3.0827030072 0.9836756100 -3.4299870205
H 0.5878872435 0.9527157546 -3.0186956194
H 1.0434497879 1.6416163393 -1.4512247869
H -0.6991434814 -0.8442161268 -1.8916068607
H -1.2122041449 0.7607162434 -1.4004456758
H 0.7258025781 -1.0074491879 0.1723294749
H -2.8670128759 -0.4054703464 -0.5498206159
H -4.6778560512 -1.6336492795 0.5704455015
H -1.8509871655 -3.2674926308 3.3677911683
H -0.0322944562 -2.0309460808 2.2388213679
H -1.7197805903 1.8266643779 0.6888189071
H -1.1036763937 3.8003321414 2.0772370376
H 1.1699057800 3.8569258961 3.1463525309
H 2.7025413817 1.9349885174 2.7714441666
