37
CONF114
C -7.4494081945 2.6918893639 0.3406295889
C -6.0534109840 2.1639977577 0.0467934791
N -5.7092667865 1.1035511501 1.0221406055
S -4.2110217290 0.9213339626 1.6598549880
O -4.2828862125 -0.1123748548 2.6938114564
O -3.6315160339 2.2447877854 1.9004734276
C -3.1428241953 0.1634608564 0.2530209461
C -1.6118995415 0.2649024927 0.5342833338
C -0.7506467850 -0.7115983018 -0.3436999623
C 0.7685300669 -0.3098358487 -0.3987084381
C 1.7024598021 -1.4813443309 -0.8492845297
C 3.1611259483 -1.0915517060 -1.3084042556
C 4.0239840439 -0.2733582068 -0.2967092702
C 5.5523427057 -0.2361909223 -0.6340988551
F 6.1176818445 -1.4282885098 -0.4184135056
F 6.1404180521 0.6670482300 0.1615735255
F 5.7465514977 0.1182952035 -1.9107975091
F 3.8959301253 -0.8024332968 0.9408931840
F 3.5759865687 1.0021823323 -0.2831557256
F 3.7905339822 -2.2685095905 -1.5490735474
F 3.0791421203 -0.4033878319 -2.4657758380
F 1.8047733114 -2.3760771949 0.1543180277
F 1.1329245366 -2.0878774348 -1.9201961914
F 0.9045287906 0.7172691936 -1.2655058571
F 1.1596870017 0.0924305722 0.8332403923
F -0.8630458890 -1.9579082170 0.1656277000
F -1.2405744991 -0.7037187436 -1.6046017890
F -1.2164790754 1.5343525660 0.2894907238
F -1.3948682845 -0.0256261800 1.8371425545
F -3.5047764450 -1.1290041352 0.1165534094
F -3.4404337833 0.8264347845 -0.8831429961
H -7.4960645344 3.1352287458 1.3388065479
H -7.7081887558 3.4571965983 -0.3968319118
H -8.1928930616 1.8916928169 0.2758336789
H -5.9926727926 1.7649132281 -0.9714267490
H -5.3114120610 2.9597640720 0.1477672840
H -6.2144873042 0.2249533481 0.9395785472
