41
CONF19
C -3.7516517240 3.9249039396 3.7869180793
C -3.8828798849 3.4964522685 2.3466667667
O -3.6043636425 2.0578978539 2.2975507191
C -3.6678018695 1.4834853700 1.0931966525
O -3.9078780105 2.0616518089 0.0548746096
C -3.4480431092 -0.0249420522 1.2159362795
C -4.7657541159 -0.7034526616 1.5618549016
O -3.0191044810 -0.5663262431 -0.0336077769
C -1.7735812995 -0.2391024505 -0.4923702577
C -1.4384350253 -0.7827542929 -1.7377113798
C -0.1973318725 -0.5255282346 -2.2992912026
C 0.6943073883 0.2758864953 -1.6030506560
C 0.3858694555 0.8270911592 -0.3753035207
C -0.8615384004 0.5689832255 0.1915342716
O 1.9366798445 0.5973328170 -2.2037427743
C 2.9325702182 -0.2374512415 -1.9618884858
N 2.9653202137 -1.3166210525 -1.2480038532
C 4.2902320016 -1.7464655503 -1.3840305246
C 4.9578296700 -2.8463907983 -0.8602610659
C 6.3047439061 -3.0030265717 -1.1874775805
C 6.9458763137 -2.0773206765 -2.0141079187
C 6.3062635607 -0.9619620362 -2.5567712779
C 4.9795114923 -0.8494387316 -2.2068891816
O 4.0897903076 0.1383540954 -2.5845849707
Cl 8.6469968448 -2.3246685308 -2.3948192178
H -2.7412557343 3.7365171139 4.1601503265
H -4.4699964594 3.3965346108 4.4197822960
H -3.9518434860 4.9978138240 3.8592447876
H -3.1631424312 4.0023693326 1.6964787243
H -4.8911992830 3.6606271134 1.9551539016
H -2.7040932602 -0.2252220687 1.9970513050
H -5.5094122755 -0.5033876233 0.7854586557
H -4.6089863705 -1.7817074151 1.6420086970
H -5.1364526900 -0.3283635026 2.5185921691
H -2.1619925300 -1.4039700987 -2.2545263308
H 0.0762373478 -0.9392203419 -3.2640837689
H 1.1065886953 1.4534096114 0.1394562950
H -1.0918270471 1.0056804556 1.1558300793
H 4.4557954362 -3.5622962387 -0.2190684841
H 6.8613516521 -3.8480418430 -0.7993417500
H 6.8126009612 -0.2501716572 -3.1968073584
