50
CONF6
C 6.8896034560 2.4993102638 -0.3224918693
C 5.9945679423 1.9365040840 0.7614342603
O 4.6415972974 1.7271820153 0.2699751328
C 4.4290784259 0.5808521225 -0.4268738534
O 5.2770483096 -0.2955662186 -0.5647211543
N 3.1792846214 0.5417847820 -0.9737574888
C 2.0994930901 1.4366235798 -0.5529878357
C 1.2646521036 0.7797773145 0.5609967326
C 0.7682780702 -0.5736485315 0.1235720930
C -0.5394621224 -0.9011098743 0.1187713891
C -1.6037209120 0.0384993993 0.5593145803
C -2.4782071865 0.5599659187 -0.4067102864
C -2.2889305890 0.1469699141 -1.8368909051
C -2.7267210534 -1.3030649795 -2.0741206475
C -2.0538682323 -2.4027469083 -1.2757077050
C -1.0470877551 -2.2389134159 -0.3031716063
N -0.5147641405 -3.2866924220 0.3615401499
C -0.9335582608 -4.5208820525 0.0772145112
C -1.9120194332 -4.7866697797 -0.8737446431
C -2.4698377571 -3.7104095452 -1.5444279536
C -3.5015565270 1.4242413262 -0.0187479876
C -3.6385080059 1.7542496044 1.3240518726
C -2.7872280737 1.2490498361 2.2974401542
C -1.7701131507 0.3847218477 1.9009151817
Cl -4.9349576261 2.8514223015 1.8047620525
C 1.8593549287 -1.4670211219 -0.4036774087
C 2.6827801329 -0.7363286241 -1.4807985408
H 6.4813005618 3.4357775303 -0.7136432193
H 7.0032873230 1.7884760735 -1.1452784483
H 7.8803694345 2.7035901967 0.0958397212
H 5.8682445466 2.6473336776 1.5812298661
H 6.3803195198 0.9940842086 1.1585397770
H 2.5082005511 2.3902070828 -0.2221290661
H 1.4615485112 1.6194548222 -1.4267260682
H 1.9083394774 0.6638828707 1.4449579374
H 0.4406581963 1.4437050756 0.8312620627
H -1.2337500215 0.2638127592 -2.1118979799
H -2.8761623221 0.7925847409 -2.4962020885
H -3.8062596683 -1.3749113969 -1.8853073369
H -2.5932244188 -1.5361605842 -3.1379681928
H -0.4715584399 -5.3304964849 0.6400974945
H -2.2288486438 -5.8043161537 -1.0757107768
H -3.2396986114 -3.8743846822 -2.2946489510
H -4.1776826192 1.8384932710 -0.7595754550
H -2.9125531183 1.5192402094 3.3397417403
H -1.0939443814 -0.0225565880 2.6466756299
H 2.5371872572 -1.7420915612 0.4169442340
H 1.4594045143 -2.3900031934 -0.8256359169
H 3.5259966680 -1.3489941338 -1.8015647876
H 2.0485351226 -0.5294986922 -2.3517312795
