88
CONF32
C 1.6549482799 -1.3802261170 -0.7144688624
C 0.1593222390 -1.4224643874 -0.3912505990
C -0.6214063541 -0.6255500903 -1.4255498181
O -2.0315252978 -0.6052032455 -1.0737615255
C -2.8057868566 -1.6080089193 -1.5502653726
O -2.3774053758 -2.5220767761 -2.2402436086
C -4.2120124562 -1.4879612264 -1.1648781615
C -4.7022240126 -0.4964355666 -0.3945134719
C -6.0841818014 -0.3111576926 0.0180823454
C -6.3618734560 0.7551582923 0.8871971971
C -7.6674468235 0.9785262498 1.3242522175
O -8.0435413839 1.9757480298 2.1662698838
C -7.0198323366 2.8658427961 2.6332116256
C -8.7027461154 0.1342912565 0.8951484756
O -9.9777445960 0.3167065415 1.3550034816
C -10.7350290243 1.2705355249 0.5764874162
C -8.4211233421 -0.9268786497 0.0139291767
O -9.4972392027 -1.6699127117 -0.3517534076
C -9.2666186320 -2.7632126167 -1.2513586676
C -7.1180430457 -1.1539492574 -0.4183403881
C -0.1752054073 0.8293446247 -1.4967866957
O -0.8250814959 1.4989793060 -2.5815586429
C -1.9037182512 2.3492779893 -2.1862606412
C 1.3278270408 0.8921849770 -1.7705939479
C 1.7999693418 2.3299505492 -1.7711963516
O 1.2604086140 3.2546768308 -1.1983237698
O 2.9575338832 2.4494281137 -2.4481300066
C 3.5591889411 3.7683141776 -2.4352347863
C 2.1754231546 0.0641310677 -0.7729403360
C 2.2183577968 0.6698528859 0.6322067374
C 3.0241332854 -0.1953450452 1.6047965561
N 2.5214550271 -1.5871736815 1.6103999139
C 3.3227473982 -2.4068792334 2.5369313586
C 4.8023025050 -2.5747014912 2.1225568223
C 5.3264845200 -1.2723946230 1.6118484032
C 4.5076474656 -0.2012502941 1.3599229701
N 5.2632531360 0.8608812924 0.8855712232
C 6.5836855346 0.4794685653 0.8195430193
C 6.6607729346 -0.8718539186 1.2673963431
C 7.9125388953 -1.4921328773 1.2899633179
C 9.0430222843 -0.7888972279 0.8832410156
C 8.9336486452 0.5468446330 0.4482074955
O 10.0035984394 1.3017182487 0.0356571212
C 11.2967609268 0.6921560932 0.0613287166
C 7.7003788452 1.1982557242 0.4102670359
C 2.5076421097 -2.1832737325 0.2660532672
H 1.7975669345 -1.8320286259 -1.7062607784
H -0.1929301253 -2.4595158580 -0.3947049682
H -0.0369774050 -1.0115938656 0.6046856767
H -0.5191722103 -1.0781813295 -2.4184450781
H -4.8376656731 -2.2821794750 -1.5586128086
H -4.0060627145 0.2541409187 -0.0275613698
H -5.5495634677 1.3944999480 1.2105304013
H -6.5502306427 3.3968819406 1.7972809690
H -7.5272132124 3.5788707976 3.2831542617
H -6.2584303306 2.3225283251 3.2044828919
H -10.8411124459 0.9189677289 -0.4561587843
H -11.7169532052 1.3395169484 1.0473704459
H -10.2460447921 2.2507498165 0.5899437366
H -10.2433357633 -3.2192664643 -1.4134107073
H -8.5843686628 -3.4979815368 -0.8085767323
H -8.8616007372 -2.4073231484 -2.2057767076
H -6.9033343295 -1.9674150495 -1.0976672539
H -0.4105032571 1.3349694415 -0.5501113096
H -2.7242912118 1.7784798673 -1.7341071744
H -1.5571905993 3.1139967110 -1.4784582713
H -2.2641778781 2.8377849529 -3.0948375554
H 1.5035264749 0.4798340492 -2.7723570509
H 4.4803226978 3.6709823573 -3.0081956176
H 3.7740503593 4.0735474742 -1.4081685578
H 2.8885228859 4.4925462888 -2.9034927837
H 3.2011076895 0.0361320075 -1.1636355022
H 1.2083139679 0.7816507448 1.0384637320
H 2.6474334262 1.6779285013 0.6068399185
H 2.8436883719 0.2037081831 2.6153245236
H 2.8461561314 -3.3897532333 2.6295340281
H 3.2793795788 -1.9217514239 3.5202511043
H 4.9056355879 -3.3603244543 1.3605270843
H 5.3764611801 -2.9192921698 2.9920015294
H 4.9131027062 1.7723949168 0.6405096935
H 8.0129261158 -2.5208519987 1.6244186322
H 10.0067461918 -1.2817351659 0.9072732039
H 11.3400875437 -0.1789185002 -0.6040246759
H 11.9905204841 1.4552053314 -0.2940286974
H 11.5746699972 0.3908494594 1.0787962329
H 7.6371535315 2.2274229212 0.0716474474
H 2.1080850738 -3.2011227143 0.3600982642
H 3.5224356355 -2.2666892982 -0.1626055320
