52
CONF2
C 1.2760363106 0.5620724323 -1.6805714077
C 1.5572875941 0.1841401147 -0.2201003617
C 1.0908689150 1.2751310463 0.7645796683
C -0.2882310362 1.0074373017 1.3547519213
O -0.5887158203 1.4145200336 2.4638691421
C -1.2110536798 0.2291309656 0.4413469165
C -0.6265541934 -1.1955317756 0.2101744563
C 0.9165452439 -1.1574813725 0.2098356949
C 1.6884346202 -2.2194984649 -0.5730466249
C 3.1279806272 -1.6500873878 -0.6591744256
C 3.0792518448 -0.2186142442 -0.0731131674
C 4.0060123121 0.7603384483 -0.7814759133
O 4.3011251439 0.6639909433 -1.9629242310
C 4.5551438977 1.9178803460 0.0228185246
O 5.2679881748 2.8224208690 -0.7966430281
O 3.3831325051 -0.2097392967 1.3277992639
C -1.3239225394 -1.8262056784 -0.9922851966
C -2.8445153884 -1.8730578810 -0.7388736630
C -3.3819626949 -0.5174435607 -0.3919655951
C -4.3469837475 0.0616896316 -1.1350010406
C -4.8396413598 1.4102653881 -0.8875747758
O -5.7431904001 1.9132006876 -1.5744666467
C -4.2029924959 2.1492852798 0.2027636641
C -3.2406990816 1.5950781393 0.9528089239
C -2.7386492896 0.1942933140 0.7794826943
C -3.0572030196 -0.5591860950 2.0985992517
H 1.6488833782 -0.1916323486 -2.3779119011
H 1.7551056112 1.5142633203 -1.9270095860
H 0.2079251286 0.6816342026 -1.8635068303
H 1.7777745932 1.3842577346 1.6062978057
H 1.0231206417 2.2528544356 0.2656084004
H -1.1409429357 0.7581368739 -0.5191632809
H -0.9015081976 -1.8012889148 1.0817684293
H 1.2099645434 -1.2621216983 1.2627321633
H 1.2717409659 -2.3464274234 -1.5762877067
H 1.6570439066 -3.1951491458 -0.0805742188
H 3.8460284091 -2.2447390411 -0.0864193746
H 3.4842649127 -1.6168215806 -1.6905686780
H 3.7191748376 2.4232337624 0.5297618462
H 5.2013902879 1.5130236058 0.8156951119
H 5.2786198410 2.4218554232 -1.6834831808
H 4.1911509590 -0.7229287750 1.4587588409
H -0.9621253883 -2.8474965008 -1.1482285631
H -1.1198194441 -1.2584453716 -1.9081759637
H -3.0327935066 -2.5679649685 0.0906328168
H -3.3683381713 -2.2628903290 -1.6159167779
H -4.7854470039 -0.4688498429 -1.9771414778
H -4.5505527205 3.1627532293 0.3839197662
H -2.7972163799 2.1545562502 1.7713364295
H -4.1406073232 -0.5809864846 2.2469674589
H -2.5922435052 -0.0446997167 2.9409501840
H -2.6960859829 -1.5881561715 2.0723610404
