49
CONF59
C -0.9488443217 1.2824140358 5.1043748203
C -0.6973105316 2.1040359006 4.0081390928
C -0.4109309356 1.5513459492 2.7638902574
C -0.3514891783 0.1647763500 2.6342175105
C -0.6000353354 -0.6705981573 3.7237959301
C -0.9041471176 -0.1024345423 4.9560714130
N -0.0294129008 -0.3842807785 1.3618858164
C 1.1641067924 -0.1579143592 0.6977887116
O 1.8976434821 0.7976045886 0.8767997308
C 1.3928287193 -1.3348877312 -0.2270300799
C 0.1911675948 -2.2272075404 -0.0005691255
O -0.1171186747 -3.2282955967 -0.6202384644
N -0.5636975566 -1.6554277905 1.0127733071
C -1.9711160272 -1.8506605567 1.1328353574
C -2.4390015536 -3.1299541696 1.4251211255
C -3.8105458488 -3.3462483182 1.5144165611
C -4.7029737089 -2.2909925967 1.3406979684
C -4.2201722408 -1.0133543004 1.0643464609
C -2.8529029448 -0.7852325835 0.9515923133
C 1.5776671571 -0.9429593797 -1.6995965247
C 0.3669391821 -0.1902127033 -2.2342426301
S 0.5307236819 0.2463825144 -4.0303615717
O -0.7037124839 1.0958443364 -4.3391051310
C 1.9370109414 1.3867346163 -3.8536702693
C 1.7092766017 2.6911870132 -3.4279799670
C 2.7924380276 3.5564873288 -3.3102119216
C 4.0791121648 3.1155400494 -3.6205904427
C 4.2888043982 1.8091588231 -4.0560463431
C 3.2109019162 0.9351427928 -4.1837576295
H -1.1847648629 1.7187966585 6.0693417806
H -0.7390999370 3.1832287279 4.1140111337
H -0.2388630864 2.1822724344 1.9000410262
H -0.5548295219 -1.7482015260 3.6107558397
H -1.1002826783 -0.7490478762 5.8052726041
H 2.2976173886 -1.8507400897 0.1209917609
H -1.7350798341 -3.9388633671 1.5824708355
H -4.1794096308 -4.3424342433 1.7361310341
H -5.7711134683 -2.4620837811 1.4247538350
H -4.9101236962 -0.1870566575 0.9269496638
H -2.4764228327 0.2062536162 0.7245760491
H 2.4762358337 -0.3224797784 -1.7663875466
H 1.7513531933 -1.8556839914 -2.2783636383
H -0.5434213698 -0.8001111184 -2.1976795092
H 0.1906857991 0.7578568889 -1.7117589147
H 0.6999389044 3.0207477895 -3.2007340079
H 2.6323971262 4.5771746420 -2.9774999039
H 4.9196321435 3.7959558919 -3.5288082409
H 5.2890649051 1.4708698986 -4.3065865178
H 3.3612753197 -0.0824462126 -4.5331624681
