29
CONF40
C -1.4888613929 1.3032467392 -3.5457773838
C -0.3550884443 1.1266985776 -2.5679702743
O -0.9326291644 1.1856207624 -1.2162228106
P 0.0043038886 1.1571565481 0.0718900403
S 1.4310380929 2.4512935584 0.2304692703
O -1.0328223922 1.1936647810 1.2664247691
C -2.1617449776 0.2418309203 1.3463991090
C -3.4523718617 0.9738683029 1.0743576309
O 0.5211886337 -0.4179580133 -0.0608293416
C 1.4766708880 -0.9551112134 0.7421370604
N 1.4879085922 -0.6454182828 2.0261219416
C 2.3879512206 -1.1835556642 2.8251733665
C 3.3419366219 -2.0970176105 2.3719803627
C 3.3360323769 -2.4341543954 1.0225786895
C 2.3943489800 -1.8535800829 0.1887925037
Cl 2.3585352604 -2.2318455137 -1.5055878695
Cl 4.5173701861 -2.8092126097 3.4313803143
Cl 2.3336936743 -0.7037740565 4.5022240953
H -2.2312096194 0.5088295290 -3.4303932938
H -1.9758693802 2.2719594209 -3.4055674354
H -1.0893311583 1.2592784339 -4.5632816105
H 0.3888306985 1.9250690639 -2.6549087195
H 0.1375185825 0.1560167627 -2.6829108296
H -2.1173910998 -0.1522067721 2.3641536631
H -1.9972153484 -0.5774851626 0.6407317080
H -4.2878788943 0.2775446748 1.1985113805
H -3.5843337430 1.8007198846 1.7773213318
H -3.4732191313 1.3638455749 0.0535006063
H 4.0626391916 -3.1353244537 0.6294042451
