42
CONF91
C -5.2479056287 0.4603450175 3.2753791304
C -5.6336627757 -0.4086683569 2.0799380793
C -4.5007137013 -0.5535015368 1.0954646037
O -4.8801497905 -1.3846640533 0.0087410149
C -3.9371801133 -1.0662269939 -1.0223635638
C -3.6537583703 0.4374329395 -0.8112598611
O -4.1786711332 0.7105005903 0.5022555075
C -2.1941849483 0.8234054338 -0.9206013176
O -1.4546780844 0.0514890795 0.0329087393
C -0.1040790253 0.2361997670 0.0971627914
C 0.6098470629 1.1281397792 -0.7092294841
C 1.9904688697 1.2395440681 -0.5547063193
C 2.6479688012 0.4614792559 0.3876587715
C 1.9440535010 -0.4289219365 1.1912871707
C 0.5678053333 -0.5377496587 1.0494675524
O 4.0159644900 0.6113870324 0.6028699120
C 4.8855315363 0.2395916748 -0.4016321713
C 4.5212669735 -0.5906326528 -1.4612053770
C 5.4834282424 -0.9424721213 -2.4062265627
C 6.7923412108 -0.4789246527 -2.3005229632
C 7.1405703022 0.3468845789 -1.2314749670
C 6.1930896301 0.7114120856 -0.2816750774
H -5.0134033096 1.4813177996 2.9611109205
H -4.3707404531 0.0518189551 3.7884104772
H -6.0684816217 0.5077174513 3.9962827122
H -6.4962800975 0.0114862565 1.5502133337
H -5.9059811688 -1.4157222189 2.4158389122
H -3.5937227205 -0.9655064908 1.5751862226
H -3.0219213037 -1.6611379808 -0.9036956784
H -4.3964274449 -1.2779837435 -1.9894304726
H -4.2105303935 1.0515733502 -1.5295123352
H -2.0750648382 1.8947781512 -0.7130567658
H -1.8417988396 0.6171736461 -1.9421918588
H 0.1125508616 1.7424927442 -1.4494156079
H 2.5532818264 1.9322419839 -1.1726786707
H 2.4747311544 -1.0282849589 1.9238925397
H -0.0009073256 -1.2235706944 1.6689995543
H 3.5050809565 -0.9586745312 -1.5472246558
H 5.2002164982 -1.5903237908 -3.2302533004
H 7.5339155333 -0.7582594886 -3.0414612130
H 8.1572499802 0.7158691005 -1.1364608330
H 6.4508815038 1.3549970239 0.5532112163
