42
CONF42
C 5.4650751513 -1.3077122740 2.0581250442
C 4.2455146628 -0.6200291435 1.5452673084
N 3.1220166458 -0.7185740770 2.2581227477
C 2.0752091313 -0.0458105372 1.7459390837
N 2.0920115264 0.6965295474 0.6410646172
C 3.2672520128 0.6921941617 -0.0014773350
N 4.3719838773 0.0670164908 0.3943253361
O 3.2582253513 1.3937065817 -1.1296220322
C 4.4848991922 1.4356929278 -1.9026517789
N 0.9044516315 -0.1714138307 2.4618351366
C -0.3941944338 0.2692364469 2.1852068952
O -1.3202100559 -0.0520687017 2.9131748816
N -0.5175548337 1.0692721317 1.0754108702
S -2.0261424904 1.5254831300 0.4375505073
O -2.7284794115 2.3484684764 1.4259878461
O -1.6736504907 2.1059118956 -0.8654042165
C -2.9599069345 0.0223910023 0.2053631571
C -4.2407283697 -0.0281069541 0.7465502054
C -5.0620741388 -1.1143608237 0.4736702050
C -4.5905920396 -2.1344787577 -0.3468267450
C -3.3053532216 -2.0994017603 -0.8793113986
C -2.4596355966 -1.0243959937 -0.5934383134
O -1.1760339054 -0.9208568535 -1.0080707950
C -0.6853507387 -1.8642649825 -1.9770797224
C 0.8015020396 -1.6783180310 -2.0953678977
Cl 1.6740834882 -2.4091201041 -0.6597380430
H 6.1579164938 -0.5542064230 2.4508366344
H 5.9773939146 -1.8236405092 1.2423253457
H 5.2130817767 -2.0065337558 2.8553607222
H 4.7721169118 0.4276495277 -2.2090245804
H 5.2854664357 1.8922411803 -1.3170058211
H 4.2434311678 2.0486414120 -2.7697875509
H -4.5859284238 0.7900082123 1.3678113300
H -6.0616430264 -1.1559034035 0.8908146093
H -5.2283574852 -2.9812166374 -0.5795628899
H -2.9727553228 -2.9128239343 -1.5107334304
H -1.1520811313 -1.6546478266 -2.9496383971
H -0.9161846899 -2.8910854734 -1.6778967877
H 1.1736495495 -2.1985015629 -2.9790004185
H 1.0797005184 -0.6228989874 -2.1303177988
H 0.3017904711 1.1625302896 0.4574804960
H 0.9657581100 -0.7555513609 3.2861616864
