35
CONF43
C -0.9650788575 1.9610463492 1.5747970533
C 0.3601336049 1.9985743611 2.3070343278
O 1.0423622382 0.7501442294 2.2543334236
C 2.0463884213 0.6808399792 1.2395890094
C 2.5012181249 -0.7573475647 1.0814669446
O 1.6367355175 -1.5716781902 0.2998865117
C 0.4357373270 -1.9746660980 0.9635080519
C -0.2886163099 -2.9944628611 0.1026491957
O -1.0596719366 -2.4583665464 -0.9623654219
C -0.3142097625 -1.9335936326 -2.0627371320
C -0.2280322209 -0.4229321580 -2.0320333545
O -1.5289431315 0.1002636482 -2.3076342336
C -1.6740337943 1.4813250896 -2.0251889013
C -1.9505993902 1.7871794631 -0.5631278233
O -0.7346802583 1.7971801243 0.1834784737
H -1.5768874858 1.1289172420 1.9619577550
H -1.5102092665 2.9031785681 1.7692233081
H 0.9891959992 2.8070603986 1.9052792010
H 0.1616429065 2.2160786491 3.3645118571
H 2.9132775054 1.2988702401 1.5341083747
H 1.6617869605 1.0535488858 0.2808217660
H 2.6569458085 -1.2022369834 2.0785797840
H 3.4604689213 -0.7582012996 0.5512241993
H -0.2194001791 -1.1145864144 1.1557390337
H 0.6900180262 -2.4345893790 1.9339695949
H -1.0095189020 -3.5224473006 0.7374928481
H 0.4413611407 -3.7305908100 -0.2737620575
H -0.8415166126 -2.2398122202 -2.9753765301
H 0.7011034052 -2.3521701368 -2.0829246781
H 0.1339884701 -0.0881762702 -1.0560193468
H 0.4845950169 -0.0821438658 -2.8052175541
H -2.5404353777 1.8155727178 -2.6082794904
H -0.7950013537 2.0562201054 -2.3618563638
H -2.4389094964 2.7750966610 -0.4829717620
H -2.6412145613 1.0269044213 -0.1640615653
