43
CONF7
C 2.4947648384 -3.3887293258 -2.5337344572
C 3.0293265855 -2.7416110317 -1.2733181620
O 2.3099627019 -1.5277811980 -0.9429436310
N 1.0722382849 -1.8615568648 -0.4086062895
C 0.3355450511 -0.8394182036 -0.1837396678
C -1.0076413033 -1.0043784538 0.3984192345
C -1.3652074648 -0.2650699673 1.5472960435
C -2.6440051784 -0.3771445979 2.0890835896
C -3.5789705141 -1.2060663190 1.4803780292
C -3.2419518949 -1.9239638869 0.3443110975
C -1.9566297517 -1.8430910789 -0.2073069899
O -1.6566376211 -2.4796670484 -1.3737189959
C -1.3500838967 -3.8879601537 -1.2303566581
Cl -4.4707882619 -2.8897973564 -0.4537323316
O -0.3912674246 0.5262889572 2.0606417174
C -0.7227657783 1.3674169273 3.1764936383
O 0.8481780663 0.4307185030 -0.3694309651
C 0.0151044999 1.4542806155 -0.7630623296
O -1.0417683817 1.2605067238 -1.3182478092
C 0.5950160566 2.7741349611 -0.4495218511
C -0.0456684222 3.9086651966 -0.9621225029
C 0.4502794014 5.1729271863 -0.6754784843
C 1.5827408551 5.3118832969 0.1266711794
C 2.2199256309 4.1841839619 0.6416706887
C 1.7321286545 2.9149427491 0.3551780035
H 1.4571763847 -3.7056344114 -2.3981095352
H 2.5450376293 -2.6930495666 -3.3765725813
H 3.0950232263 -4.2715923844 -2.7761011842
H 2.9894997570 -3.4224477958 -0.4153842589
H 4.0594619870 -2.3989271105 -1.4066962962
H -2.9276677134 0.1747774486 2.9754675841
H -4.5802244246 -1.2822698574 1.8892955933
H -2.1719634190 -4.4195918477 -0.7412377638
H -0.4252906960 -4.0061349584 -0.6581135751
H -1.2170501636 -4.2683690740 -2.2440845343
H -0.9894769314 0.7666494982 4.0528284371
H 0.1801266030 1.9420223425 3.3831225148
H -1.5442875684 2.0451423152 2.9198508272
H -0.9262805920 3.7849404598 -1.5828898172
H -0.0445423612 6.0515854900 -1.0760153310
H 1.9685751814 6.3012748747 0.3514455182
H 3.0985687993 4.2947605649 1.2687014224
H 2.2214894575 2.0371510285 0.7596710055
