46
CONF80
C -2.3560685781 -1.0190332973 0.0677961174
C -2.2315138462 -1.7575886492 1.3806990909
C -0.8852093631 -2.0669345456 1.9649761449
C -1.8174539094 -1.0437226355 2.6665655403
C -1.4829546214 0.3843105784 2.8254414358
O -1.7699947234 1.0196935156 3.8265480450
O -0.8256929101 0.9199918374 1.7789215738
C -0.4638700517 2.3261824727 1.8973865294
C -0.0127947874 2.7888736138 0.5434941277
C 0.9516468485 2.0642417981 -0.1575589041
C 1.3465197875 2.4963093359 -1.4185259821
C 0.8301072150 3.6612887813 -1.9779609575
C -0.1113407293 4.3922847024 -1.2612298223
C -0.5454774893 3.9529299107 -0.0127824444
O 2.3259490134 1.8299790795 -2.1354212932
C 2.2406190995 0.4572597535 -2.2833828383
C 1.0263850694 -0.2272614454 -2.2905437104
C 1.0291420161 -1.6039340868 -2.5034107490
C 2.2222462663 -2.2896681133 -2.7185993367
C 3.4254200804 -1.5860503121 -2.7234211297
C 3.4418137549 -0.2131867804 -2.5022539920
C 0.3656918973 -1.6597567899 1.3118021025
C 1.5780562524 -1.8869216823 1.8165095733
Cl 3.0380438546 -1.4453365265 0.9747528543
Cl 1.8496064766 -2.6358059374 3.3665107597
C -3.3034349420 -2.8119065005 1.5706942282
H -2.3026251073 -1.7419823742 -0.7539919319
H -3.3312063580 -0.5232995389 0.0155777721
H -1.5873916872 -0.2627331121 -0.0848835693
H -0.8145600848 -2.9907016582 2.5337163619
H -2.2842546377 -1.4241635944 3.5690567686
H 0.3348281563 2.4085017443 2.6438623021
H -1.3278569917 2.8982507729 2.2429707036
H 1.3840451406 1.1643604723 0.2685320852
H 1.1647431423 3.9767298193 -2.9604556354
H -0.5241880404 5.2997475401 -1.6900186719
H -1.3004104481 4.5128057658 0.5305238785
H 0.0934294554 0.3037354028 -2.1352441619
H 0.0843386449 -2.1392650459 -2.5066675762
H 2.2144590558 -3.3619793342 -2.8829647947
H 4.3620323927 -2.1087262257 -2.8909687543
H 4.3713440621 0.3466765383 -2.4966114227
H 0.3292872117 -1.1673415842 0.3450733729
H -4.2968904135 -2.3510923848 1.5561629169
H -3.1809074191 -3.3419330756 2.5191777688
H -3.2536564527 -3.5438282100 0.7571692155
