54
CONF163
C 3.6649172844 -0.9595904616 -1.2483545362
C 3.7937044550 0.0251200924 -0.0855379045
C 2.6646640570 1.0273431794 -0.0918400008
C 1.5429798727 0.8342621519 -0.9066304738
C 0.5163443875 1.7777180584 -0.9570233707
C 0.5787301424 2.9215473460 -0.1758633430
C 1.6769624203 3.0917691141 0.6514609859
C 2.7128494731 2.1781528418 0.6996200669
F 1.7388929870 4.1930070372 1.4387621328
O 1.3882891459 -0.2770615596 -1.6993674162
C 2.2157513537 -1.4005969693 -1.3429627739
C 1.9375051721 -2.4580457221 -2.4071212091
C 0.4556654083 -2.8257271681 -2.4774704493
N -0.0119088996 -3.2974830325 -1.1791434469
C -1.4494450671 -3.5412143937 -1.0925928935
C -2.2603580061 -2.2438291392 -1.0672636957
C -1.6523860984 -1.1762487944 -0.1605090593
C -1.4886595216 -1.5618433497 1.2974324802
C -0.8712031703 -0.3833726535 2.0489435269
C -1.6129025853 0.8893804273 1.7426128284
C -2.4089900596 0.9814608472 0.5946542366
O -2.5635541223 -0.0526638633 -0.2920127627
C -3.1027355848 2.1552797497 0.2975782808
C -3.0043926708 3.2594036487 1.1334637094
C -2.2032373554 3.1623086552 2.2602787131
C -1.5166806319 2.0054702552 2.5749333106
F -2.0970091241 4.2345715645 3.0828317258
O -3.5722494564 -2.6128368156 -0.6459996771
O 2.7326381095 -3.5956572124 -2.0400135905
H 4.3089711455 -1.8296069129 -1.1012005284
H 3.9478696248 -0.4815353434 -2.1947954385
H 3.7858583402 -0.5273002092 0.8638805420
H 4.7525807374 0.5533041302 -0.1289155322
H -0.3371223813 1.5928544981 -1.6007301076
H -0.2214309703 3.6525625790 -0.1790829943
H 3.5631922588 2.3653667550 1.3482072423
H 1.8741641356 -1.7885115481 -0.3709985366
H 2.2549395207 -2.0606873315 -3.3848157607
H -0.1027237512 -1.9282116298 -2.7645830022
H 0.3095952087 -3.5664159250 -3.2906806787
H 0.4989276738 -4.1367610107 -0.9316392756
H -1.6548380309 -4.0696213339 -0.1543932457
H -1.8444148921 -4.1711975629 -1.9104904780
H -2.3098845460 -1.8087021708 -2.0799142932
H -0.6801277330 -0.8767707101 -0.5724790411
H -0.8386587798 -2.4387647670 1.3637437092
H 0.1801569095 -0.2659864096 1.7473763649
H -3.7144107490 2.1886417351 -0.5977377154
H -3.5358144788 4.1802474069 0.9220444753
H -0.9017128977 1.9736831618 3.4689201532
H -4.0864328581 -1.7966383765 -0.6034817389
H -2.4660155987 -1.8253745820 1.7166146620
H -0.8724971833 -0.5630209133 3.1294260065
H 2.7023578641 -4.2245685376 -2.7691758926
