27
CONF11
C -0.8798702363 2.0925357859 -0.2904484584
N -1.3630436806 0.7355641585 -0.6868553684
O -2.2587578083 0.8289318781 -1.7069448206
C -1.9736444047 -0.0032298312 0.4819373467
C -2.0316465628 -1.4530547309 0.0088872357
C -0.9121191018 -1.5867308319 -1.0601988377
C -0.2105299065 -0.2240291794 -1.1277009691
C 1.0326479689 -0.0991101529 -0.2923369395
C 2.0772919575 0.7142435049 -0.7456046657
N 3.2199121800 0.9149704693 -0.0828932598
C 3.3673674258 0.2893799545 1.0927077535
C 2.4030336867 -0.5587222712 1.6277500876
C 1.2236088945 -0.7607532296 0.9231751765
H -1.7630964835 2.6750909395 -0.0250847555
H -0.3871316031 2.5359372597 -1.1573470624
H -0.1899716563 2.0308580965 0.5545482508
H -2.9423204141 0.4558007884 0.6827344994
H -1.3204213778 0.1230728716 1.3513190269
H -1.8766055688 -2.1322788045 0.8511868365
H -3.0047044900 -1.6795016362 -0.4293710798
H -1.3440235947 -1.8235073937 -2.0326965379
H -0.1953125441 -2.3722479084 -0.8123967534
H 0.0049071185 0.0953715643 -2.1490355458
H 1.9759916751 1.2263590081 -1.7026260669
H 4.3006566721 0.4665778573 1.6237479088
H 2.5785813057 -1.0570693464 2.5751407371
H 0.4692007338 -1.4344587141 1.3177829500
