63
CONF129
C 6.7894456017 -0.2252322402 -4.6386459289
C 7.3395359619 -0.0704661775 -3.2233060310
N 6.2724755975 -0.0889276650 -2.2160037750
C 5.4320480194 1.0993161314 -2.0575109072
C 4.9740182418 1.2129663556 -0.6249051295
N 4.2300901387 -0.0036492101 -0.2398799791
C 4.6590011148 -1.2181834173 -0.7134349074
O 4.1266130018 -2.2944501149 -0.4655073913
C 5.9231507739 -1.2416733897 -1.6183509721
O 6.5101944639 -2.3144320872 -1.7488395041
C 3.1797957328 0.1845602608 0.7216235802
O 2.9553428822 1.3079679183 1.1629220206
N 2.4947369993 -0.9119386925 1.0934735211
C 1.3819310926 -0.7759773648 2.0120269834
C 0.7546954035 -2.1258797783 2.2920069334
C 0.3324583614 -2.9436154411 1.2396073226
C -0.2683037612 -4.1698784209 1.5068349723
C -0.4608986741 -4.5837492111 2.8238803693
C -0.0481048896 -3.7674236349 3.8739482073
C 0.5590327584 -2.5423054225 3.6091280998
C 0.3019884977 0.1491596067 1.4076357501
O 0.0866504997 0.2127944942 0.2014520547
N -0.4259859957 0.8331534455 2.3216418772
C -1.5081426223 1.6822741207 1.9323652830
C -2.7514448913 1.1082199825 1.1811702145
N -2.5133948264 2.1012080969 0.1193014696
C -1.3585426793 2.6059766414 0.6999545928
O -0.5887789875 3.4709459905 0.3514307110
C -3.6505351325 2.7942231822 -0.4559890608
C -4.9184273095 2.0212569732 0.0649349287
S -4.4410799739 1.4607346165 1.7911512517
C -5.1603670829 0.8090721982 -0.8359288862
C -6.1704851273 2.8847722097 0.1494759837
C -3.6722875884 4.2572035560 -0.0237314999
O -4.1726060912 5.0323524299 -0.9994528008
O -3.3201909598 4.6662863942 1.0593778966
H 6.1021553451 0.5886364366 -4.8878207979
H 6.2588518143 -1.1762607640 -4.7430411080
H 7.6145462695 -0.2068194556 -5.3563649242
H 8.0301263362 -0.8821773620 -2.9860887612
H 7.8735523655 0.8793453078 -3.1160423969
H 4.5729672499 1.0660513435 -2.7414057493
H 6.0326427037 1.9785104660 -2.3053166869
H 5.8281261998 1.3514675948 0.0488046260
H 4.3016743211 2.0632088023 -0.5169601019
H 2.7244218203 -1.8037925017 0.6677187524
H 1.7306238408 -0.3381296846 2.9548301203
H 0.4675383217 -2.6194267671 0.2116131210
H -0.5906440452 -4.8013687758 0.6849010954
H -0.9306912964 -5.5402993850 3.0300810476
H -0.1927817889 -4.0855731698 4.9016258362
H 0.8862108094 -1.9077388477 4.4278842677
H -1.8217681593 2.2893683270 2.7860616057
H -2.6408047726 0.0717156438 0.8506408741
H -3.6540601423 2.7491891572 -1.5504645264
H -4.2709358009 0.1789100708 -0.9215592925
H -5.4354598810 1.1527651224 -1.8394481769
H -5.9795538597 0.2066828771 -0.4361039141
H -7.0091298737 2.2793120819 0.5035497368
H -6.4226855679 3.2630514152 -0.8462552905
H -6.0436909671 3.7320864954 0.8291041902
H -0.1997527787 0.7571381918 3.3024960907
H -4.2304278773 5.9465155987 -0.6697422234
