47
CONF44
C -3.5615405304 2.5741826002 1.1911391632
C -2.5501246873 2.1459879052 0.1489601340
C -1.1149576256 1.9250910758 0.5529876389
C -2.0395655595 0.7171396255 0.2944040082
C -1.7360388926 -0.2384602885 -0.7857981792
O -2.0075339002 -1.4172478946 -0.7354632389
O -1.0650736025 0.3372639643 -1.8306013503
C -0.5284807637 -0.5878899211 -2.8232557351
C -0.7974696095 -0.0005862842 -4.1307083637
N -1.0003278990 0.4606898616 -5.1694094735
C 0.9408045070 -0.7973742209 -2.5383647074
C 1.2619913114 -1.5384213592 -1.3996769508
C 2.5855756616 -1.6648528725 -0.9995249467
C 3.5829893255 -1.0824508181 -1.7879100736
C 3.2765295469 -0.3732173717 -2.9332164819
C 1.9441861497 -0.2127174692 -3.3047879268
F 4.8645751029 -1.2209074646 -1.4126578938
O 2.9807975441 -2.3770673372 0.0973323971
C 2.1375531409 -2.4061012476 1.2031812445
C 1.9646693945 -3.6323371755 1.8305640495
C 1.1887277727 -3.6976110974 2.9838886827
C 0.5904163120 -2.5508201869 3.4966933523
C 0.7779806481 -1.3288321018 2.8551486297
C 1.5554584980 -1.2456037859 1.7055594609
C -0.6105521848 2.1428404793 1.9084595680
C 0.6499092752 2.4578799535 2.2182908348
Cl 1.9114440498 2.6763833545 1.0407632975
Cl 1.1712110322 2.6771379315 3.8631539921
C -2.8136618432 2.7447676169 -1.2148656658
H -3.4937588438 3.6541914451 1.3604717318
H -3.4241738326 2.0680227228 2.1490656747
H -4.5733667635 2.3486660780 0.8397480903
H -0.3972448564 2.0921310353 -0.2426753807
H -2.3983322338 0.1936401772 1.1744995582
H -1.0793586086 -1.5326968369 -2.7366722159
H 0.4815794946 -2.0010222604 -0.8044401305
H 4.0828541412 0.0630600547 -3.5119533770
H 1.6956464306 0.3630420108 -4.1896992105
H 2.4394116889 -4.5132706199 1.4131366760
H 1.0496009690 -4.6529548153 3.4792160758
H -0.0148576818 -2.6071517108 4.3948797702
H 0.3308615966 -0.4250229001 3.2566968013
H 1.7146080851 -0.2948027213 1.2080638547
H -1.2944956984 2.0316042733 2.7439861240
H -3.7763814567 2.3962979891 -1.6043993620
H -2.0399210974 2.4943725087 -1.9397621716
H -2.8621632110 3.8350281937 -1.1248178778
