33
CONF513
C 4.0156172826 -2.8491838195 -1.4722583151
C 4.8484338523 -1.5599049497 -1.5010282433
C 5.0695086803 -0.9875837903 -0.1263102507
C 6.2442456463 -1.0415979437 0.5106495452
C 3.9318424741 -0.3420595729 0.5923722341
O 3.9298079607 -0.0035499360 1.7613780366
O 2.8712213920 -0.1571754507 -0.2242290289
C 1.7090706795 0.4532222860 0.3861441145
C 0.6707622399 0.5146509267 -0.7238852941
C -0.5665019710 1.3090739497 -0.3748247748
C -1.3805872191 0.7723893659 0.8430917617
C -2.8431495126 1.3148594871 0.9571250769
C -3.4852047099 1.1329831104 2.3720001421
F -4.7989404708 1.3872051621 2.2889713183
F -3.3160858031 -0.1237418180 2.8078094737
F -2.9450852567 1.9793896741 3.2563006416
F -2.8677898452 2.6373144066 0.6699817005
F -3.6234071491 0.6583975789 0.0693213305
F -1.4454332770 -0.5799100402 0.7575155772
F -0.7091313280 1.0956722847 1.9808862593
F -1.4129376067 1.3161164178 -1.4544298270
F -0.2432432254 2.6119860536 -0.1072702723
H 4.5222141648 -3.6190226355 -0.8819706983
H 3.8735702754 -3.2324944220 -2.4870507361
H 3.0289313365 -2.6745541060 -1.0336482406
H 5.8265545130 -1.7674406269 -1.9459425709
H 4.3524848340 -0.8182783716 -2.1359858739
H 6.3604588008 -0.6349729227 1.5097407191
H 7.1110139716 -1.4910548114 0.0362142343
H 1.9752261692 1.4484345533 0.7548946925
H 1.3881051375 -0.1654284818 1.2283833024
H 1.0981259122 1.0172265640 -1.5986146500
H 0.3650449547 -0.4914807057 -1.0226865739
