73
CONF2299
C -0.9172924759 3.0810284638 -0.7403931581
C -1.7286761610 2.3062381185 0.2749702752
O -3.0004408164 2.0126630283 -0.3487583632
C -3.8843103019 1.2480312994 0.4430507336
O -3.3755364437 -0.0451393188 0.7319933069
C -3.4256413458 -0.9681250405 -0.3577139721
C -4.5981851865 -1.9338790167 -0.1603989978
O -5.8605261309 -1.2666235638 -0.2048260320
C -4.5535176191 -3.0872527214 -1.1634273512
O -5.5470827227 -4.0622045586 -0.8590039941
C -3.1872487768 -3.7636865864 -1.0977734705
C -3.0040983599 -4.8448488131 -2.1439795356
O -1.7359918017 -5.4902497094 -2.0215029337
O -2.1829115448 -2.7685373215 -1.3698837119
C -2.1272837996 -1.7707213767 -0.3675008749
O -1.0746341625 -0.8958071769 -0.7053562590
C 0.2066290080 -1.2790618517 -0.4284232014
C 0.5509817879 -2.5663410728 -0.0135054278
C 1.8888725849 -2.8351940164 0.2539568909
O 2.2322342056 -4.0782559801 0.6246515858
C 2.8880865553 -1.8337724714 0.1139250889
C 4.2826266730 -2.1479976607 0.2720830515
O 4.6842982752 -3.2841152934 0.5956110182
C 5.2504444218 -1.0329882592 -0.0224879266
C 4.6237090342 0.3199640792 0.2864077650
O 3.3727589191 0.4656800651 -0.4625984101
C 2.4814957039 -0.5424659496 -0.3065695607
C 1.1559939263 -0.2636371409 -0.5840802713
C 5.4954051539 1.4884514302 -0.0611306146
C 5.8588292161 1.7455606542 -1.3858902453
C 6.6785967191 2.8205977042 -1.7034799623
C 7.1563336133 3.6508584824 -0.6849414667
O 7.9679791199 4.7190041452 -0.9324408091
C 6.8048220603 3.4043384420 0.6424431563
C 5.9735866270 2.3320032433 0.9428113373
C -4.1738070030 1.9056486693 1.7921931546
O -4.9653217986 3.0617023743 1.5241562279
C -2.8662712489 2.2828849559 2.4920884049
O -3.1317558849 3.1075436533 3.6389116531
C -1.9684205805 3.0875969526 1.5661491149
O -0.6938614493 3.3216275694 2.1716446731
H -0.8053942157 2.4952522972 -1.6574648000
H -1.4135496262 4.0263132195 -0.9835336862
H 0.0766998804 3.2977159753 -0.3420655375
H -1.2250669614 1.3622623199 0.5261922383
H -4.8063695664 1.1831094096 -0.1465030327
H -3.5116763166 -0.4388075089 -1.3174156856
H -4.5294603097 -2.3534518027 0.8520866719
H -5.9660706079 -0.8773742488 -1.0855713744
H -4.6993797478 -2.6852185177 -2.1816344551
H -6.3822420930 -3.5871102721 -0.7445287527
H -3.0284516870 -4.1867648114 -0.0920331201
H -3.1302735625 -4.4017570690 -3.1435168976
H -3.7677226667 -5.6136839141 -2.0034385860
H -1.0571911435 -4.8132505396 -2.1444089459
H -1.9499251481 -2.2191891667 0.6246601391
H -0.1713883441 -3.3674885531 0.0721725337
H 3.2269112464 -4.0723645942 0.7167039345
H 6.1614551617 -1.1703348372 0.5663901692
H 5.5244641507 -1.0923448318 -1.0851869768
H 4.3606182192 0.3604773684 1.3524676826
H 0.8525128165 0.7301435538 -0.8887248071
H 5.4916458360 1.1070272879 -2.1840506895
H 6.9513442923 3.0193207163 -2.7365651464
H 8.1305589071 4.7898558018 -1.8830927249
H 7.1782134303 4.0580703851 1.4239392761
H 5.6942305520 2.1487312343 1.9766728743
H -4.7333877404 1.1909532255 2.4147997567
H -4.9390507496 3.6011142530 2.3279955989
H -2.3361065095 1.3677353152 2.7905653205
H -3.4215362227 2.5362366793 4.3623579457
H -2.4590635992 4.0429786893 1.3219478528
H -0.8662145700 3.6874978058 3.0498034001
