41
CONF1
C 5.4947700256 0.8021366310 2.1834246511
C 4.5900725201 0.4371554220 1.0459002408
C 4.2535248495 -0.8858795127 0.7776653143
C 3.4118338115 -1.2379347914 -0.2689909081
C 2.8564374678 -0.2719452670 -1.1028605131
C 3.1986143007 1.0524259180 -0.8453267874
C 4.0354482220 1.3977660884 0.2051186929
F 4.3203041078 2.6975191905 0.4051599971
F 2.7056079184 2.0235904812 -1.6315725797
C 1.9029520794 -0.6142477067 -2.2094527619
O 0.5957926342 -0.0231856823 -1.9827759253
C -0.1212364501 -0.5844306687 -0.9732165645
O 0.2589828494 -1.5384432095 -0.3321418029
C -1.3901598575 0.1503857682 -0.7842954896
C -2.5093007028 -0.5530540221 -0.0129501221
C -1.8081372501 0.6462988104 0.5921670365
C -0.9208271546 0.3898839126 1.7889499168
C -2.5076379103 1.9869812581 0.6328493705
C -3.8714190537 -0.4821040655 -0.5295283949
C -4.7909492812 -1.4468460773 -0.4546922999
C -6.1792697660 -1.3099094748 -1.0173436938
F -6.4233531315 -2.2323799580 -1.9742603745
F -6.3633267550 -0.0915578258 -1.5746879318
F -7.1254678215 -1.4654450186 -0.0656439470
Cl -4.5089910339 -2.9956170311 0.2924226061
F 3.1477441906 -2.5338306546 -0.4710052671
F 4.7570075628 -1.8595474379 1.5565899741
H 4.9248182023 0.8893348200 3.1150246177
H 6.2545729795 0.0326038752 2.3316207996
H 5.9830783683 1.7592492093 1.9962831829
H 1.8070246012 -1.6971448507 -2.3068943649
H 2.2274236553 -0.1755434129 -3.1547466919
H -1.6795475136 0.7847459502 -1.6154771625
H -2.2034194225 -1.5069118330 0.4056469869
H -1.5158828381 0.4657809755 2.7050210850
H -0.4582536030 -0.5970083559 1.7535320565
H -0.1263261286 1.1433357025 1.8390491204
H -3.0697294790 2.2020443916 -0.2783036520
H -3.2005918542 2.0261847543 1.4802773463
H -1.7686864619 2.7842731500 0.7621703217
H -4.1834987772 0.4312707274 -1.0256398927
