33
CONF1
C 4.9988032742 1.4716626371 -0.7501263239
C 5.2269708250 0.8965670383 -2.1497896747
O 4.8954439481 -0.4869973345 -2.2624437738
C 3.5701061271 1.8056421533 -0.3843479588
C 2.5590104054 0.6169050262 -0.3445483849
C 1.2416629305 0.9070721222 0.4586251487
C 0.0748360864 -0.0863063790 0.1107743777
C -1.0532724086 -0.1184891268 1.2031403976
C -2.4017260045 -0.7260780147 0.6761802173
C -3.3594179328 -1.1882657375 1.8279417966
C -4.8458119686 -1.3786321171 1.3783656458
F -5.5140004883 -2.0060292210 2.3553209639
F -5.4319357236 -0.1990393606 1.1497309645
F -4.9034627261 -2.1233800833 0.2654355933
F -3.3467869151 -0.2710511508 2.8226419357
F -2.9216270677 -2.3707222487 2.3100836703
F -3.0361477444 0.2073818883 -0.0681866910
F -2.1279827293 -1.7981942480 -0.1014263674
F -1.2921831578 1.1432786931 1.6260155121
F -0.6243883112 -0.8632422237 2.2473343259
F -0.4771074477 0.2894634747 -1.0659930558
F 0.5796499799 -1.3343609619 -0.0150401787
F 0.8185475093 2.1626550902 0.1875057565
F 1.5053305963 0.8070092471 1.7835498592
F 2.2122807699 0.2962610416 -1.6161948696
F 3.1650707051 -0.4491178054 0.2337921294
F 3.5564059302 2.3771095559 0.8687526558
F 3.0659761856 2.7376168274 -1.2530585392
H 5.4110672121 0.8037426471 0.0124416843
H 5.5287404353 2.4284464376 -0.6696077272
H 6.2795727434 1.0660114212 -2.4114462812
H 4.6127703475 1.4233838923 -2.8861027267
H 5.5151931490 -0.9843241640 -1.7143547015
