41
CONF33
C -5.9190601445 -2.3368588110 0.5831505299
C -5.2198321917 -2.5648849414 -0.6010457179
C -4.2177334581 -1.6850579541 -1.0007201095
C -3.8988021978 -0.5684228698 -0.2222319079
C -4.6046827451 -0.3476971034 0.9622800695
C -5.6100701335 -1.2248951957 1.3630426356
C -2.7908322596 0.3598943718 -0.6434157603
C -1.4090726618 -0.2495850509 -0.3888907026
N -0.3751018235 0.6376670862 -0.9246749288
C 0.9282140427 0.5695703183 -0.5672597279
C 1.4024459776 -0.2436166176 0.4847207663
C 2.7384555932 -0.2585530006 0.8492056346
C 3.6691956298 0.5164521672 0.1708108200
C 3.2234355641 1.3455748801 -0.8871680808
C 1.8878907145 1.3643795189 -1.2334445322
C 4.1427711658 2.2201411980 -1.7140574143
F 4.8453868184 1.5036106912 -2.6185682252
F 5.0305854079 2.9042165105 -0.9515032942
F 3.4545940211 3.1505094823 -2.4112059955
S 5.3751205430 0.3443335927 0.7414298914
O 6.2714821143 0.3993535231 -0.4200603234
O 5.3951673776 -0.8299484487 1.6263412422
N 5.7785360975 1.6464639592 1.7220570343
S 0.2417716303 -1.2461376214 1.3900960065
O 0.4947859593 -1.1247517072 2.8315821010
O 0.1685831900 -2.5813552261 0.7789200617
N -1.2173129179 -0.4669838215 1.0507795377
H -6.7025534354 -3.0210020800 0.8939088456
H -5.4582635890 -3.4266443534 -1.2170320148
H -3.6789946243 -1.8632652940 -1.9281355238
H -4.3643914694 0.5177205572 1.5739383641
H -6.1521719055 -1.0391573053 2.2852588769
H -2.8605956200 0.5697943845 -1.7171000027
H -2.8565714751 1.3140657984 -0.1088838770
H -1.3501435878 -1.2353421476 -0.8718872333
H -0.6175483441 1.2187714593 -1.7140810266
H 3.0616793482 -0.8880549069 1.6705427510
H 1.5464751685 1.9992035302 -2.0426661217
H 5.1700157241 1.6881199652 2.5380725271
H 5.7450633338 2.5281332779 1.2151301878
H -1.2679186626 0.4042381049 1.5834041508
