40
CONF11
C 4.9877050592 1.2860602565 1.0158167179
C 4.5909213594 -0.1583813021 1.2241977656
O 3.1766181779 -0.2916481521 1.5614128529
P 2.0351825965 -0.1546946901 0.4531957230
S 2.4262094901 -0.7858260920 -1.3357184934
O 1.5758949240 1.3665250388 0.6211735656
C 0.9645591899 2.1504855588 -0.4525242698
C 1.9402251085 3.2033005333 -0.9224856598
O 0.9451109695 -1.0385020015 1.3282308356
C -0.3546555362 -1.1877873142 0.9476309046
C -1.1102861141 -2.1468684039 1.6176407580
C -2.4307797880 -2.2696580637 1.2121812205
N -2.9392733852 -1.5035938148 0.2233828283
C -2.1255520457 -0.6186456293 -0.3446556033
N -0.8340332296 -0.4220601747 -0.0129039595
C -2.6338950398 0.2248476295 -1.4901493385
C -2.0547127946 -0.3317512258 -2.8030924758
C -4.1552454609 0.3160479855 -1.5489592546
C -3.3623051798 -3.2592362495 1.8373271349
H 6.0718026120 1.3413854486 0.8738882548
H 4.7179297054 1.8936666348 1.8840360176
H 4.5060971003 1.7044732721 0.1279121517
H 5.1033479680 -0.5952199620 2.0841788151
H 4.7955944673 -0.7679831354 0.3378637510
H 0.6651899750 1.4816172521 -1.2626641909
H 0.0668601962 2.5889185402 -0.0086749086
H 1.4451331835 3.8511250226 -1.6532511094
H 2.8057477959 2.7407790600 -1.4051175335
H 2.2841850012 3.8213642258 -0.0882916957
H -0.6796054494 -2.7541260137 2.4038838417
H -2.2144059091 1.2281931504 -1.3395031306
H -2.4336021859 -1.3437651380 -2.9829289643
H -0.9622023976 -0.3722019344 -2.7665847176
H -2.3546237141 0.3014229253 -3.6438138336
H -4.4508747068 1.0007083130 -2.3499387004
H -4.5975067016 -0.6631063076 -1.7508877353
H -4.5711336856 0.6836153309 -0.6065707460
H -4.2405490998 -2.7410455085 2.2347621419
H -3.7208164011 -3.9600946356 1.0766225847
H -2.8782572563 -3.8183404187 2.6400834802
