51
CONF111
C 1.8432949395 -1.2669966222 0.7207963514
C 2.5105754831 -0.5814823324 -0.4437681880
C 1.8279951510 -0.4617993250 -1.6699254765
C 2.4061242105 0.2117410810 -2.7454786864
C 3.6680449110 0.7822940166 -2.6252206402
C 4.3550815991 0.6617755305 -1.4258087008
C 3.8008543951 -0.0247650668 -0.3361042483
C 4.6182241642 -0.1395419887 0.8975088729
C 4.9100247199 -1.3881745779 1.4608205833
C 5.7142557724 -1.4865715902 2.5919368196
C 6.2390559389 -0.3379958437 3.1817101372
C 5.9585565635 0.9091936245 2.6281990594
C 5.1580974746 1.0069917617 1.4934794736
C 0.4587160979 -1.0451303103 -1.8417422202
O -0.4960092257 -0.1269375520 -1.2111724463
C -1.7769508084 -0.5522461175 -1.1780491195
O -2.1456690479 -1.6137986896 -1.6445554770
C -2.6325976330 0.4519364704 -0.5091048537
C -3.9969411212 -0.0075430655 0.0124453260
C -3.9149512332 0.9669992861 -1.1467773818
C -4.3528231398 0.4490195557 -2.4975219117
C -4.2267010041 2.4312271630 -0.9297156006
C -4.4015623073 0.4131831821 1.3527189589
C -5.1736873909 -0.2851448966 2.1919096019
C -5.7516693519 -1.6399412154 1.8550720046
F -6.4620002158 -1.5968454899 0.6977665233
F -6.5730320215 -2.1202795654 2.8031144805
F -4.7723984282 -2.5645595487 1.6698803832
Cl -5.5643998739 0.3323913778 3.7814421021
H 1.9012173202 -2.3582860833 0.6267902752
H 0.7855536096 -0.9997684996 0.7792001027
H 2.3167873308 -0.9937418449 1.6646057046
H 1.8580996155 0.2872246756 -3.6805622038
H 4.1166571079 1.3068576015 -3.4626820449
H 5.3506572279 1.0840798894 -1.3263719887
H 4.5155424787 -2.2879517347 0.9984002076
H 5.9360859533 -2.4634065612 3.0108005492
H 6.8643607974 -0.4151698943 4.0656379757
H 6.3614813012 1.8095397685 3.0819695709
H 4.9362459107 1.9817457249 1.0685326623
H 0.3573459931 -2.0253028998 -1.3680567145
H 0.1982726207 -1.1367820353 -2.8995821074
H -2.0957867231 1.1768004976 0.0939288255
H -4.2443466802 -1.0189511362 -0.2907261640
H -4.1545437828 -0.6171969701 -2.6135169804
H -5.4277765895 0.6198323849 -2.6177158565
H -3.8320371881 0.9912202593 -3.2946710080
H -5.3109364562 2.5875436884 -0.9406231374
H -3.7912686499 3.0199280219 -1.7436837331
H -3.8299587792 2.8159782881 0.0119011507
H -4.0391604486 1.3753537212 1.7025694837
