23
CONF3
C -1.7583828329 -0.7213528129 1.2273620053
C -1.2025952459 0.1251240665 0.0840203736
C -1.8983476018 -0.2169606804 -1.2383680011
C 0.3082429215 0.0168630233 -0.0839015726
C 1.0014904255 -1.1466088204 0.2519984983
C 2.3730838289 -1.2459528429 0.0323081423
C 3.0714844181 -0.1806541231 -0.5240759165
C 2.3873499502 0.9841701472 -0.8607876185
C 1.0178249900 1.0807606072 -0.6456610300
O -1.5899549110 1.5063939986 0.2612055960
O -0.9735788598 2.0111205904 1.4891549791
H -2.8146208910 -0.4744140591 1.3713808117
H -1.6961657262 -1.7868070102 0.9924882844
H -1.2120874043 -0.5378332820 2.1552992803
H -1.5572446045 0.4554917386 -2.0294155652
H -1.6435438686 -1.2412071275 -1.5221118379
H -2.9841425964 -0.1319434428 -1.1343564872
H 0.4780799872 -1.9882849969 0.6925273653
H 2.8953779821 -2.1585777742 0.3020833331
H 4.1412421519 -0.2552174277 -0.6909507625
H 2.9239255075 1.8247929422 -1.2897063894
H 0.4891156602 1.9940189545 -0.8953926026
H -1.7565527042 2.0870786490 2.0548991301
