55
CONF6
C -3.2356394082 0.8722545170 -1.1401521131
C -2.5842424901 0.2315661706 0.1145177856
C -3.1531518388 0.9236912970 1.3691810080
C -4.6361627437 0.6430841556 1.5956955834
C -4.8920953884 -0.8451895734 1.6895036232
O -5.8188160451 -1.3140586885 2.3347338316
C -3.9987088420 -1.6966059628 0.8982956936
C -2.9870500502 -1.2358764175 0.1342109037
C -2.2964224793 -2.1595367231 -0.8250911338
C -0.7841049474 -1.9641636401 -0.8257402165
C -0.4388054757 -0.4998803234 -1.1168838080
C -1.0209866875 0.4346437830 -0.0210098301
C -0.1404012347 0.3290903145 1.2472527205
C 1.3296917069 0.6343891256 0.9187072232
C 1.9759035025 -0.2514881741 -0.1495799620
C 1.0556586769 -0.2786404846 -1.3925847639
C 1.3382091032 1.0463636058 -2.1400445850
C 2.7339668073 1.5240295465 -1.6813401880
C 3.2597985118 0.4072432687 -0.7616849234
C 4.2588827572 0.8985847327 0.2546836943
O 4.0810434797 1.8946217269 0.9360215919
C 5.5475954919 0.1202254640 0.4063173273
O 6.3660445465 0.6296056314 1.4216396446
C 2.3186630364 -1.6271110927 0.4253394977
O -0.5120160183 1.2289651540 2.2994375296
H -2.8510983249 0.4527363491 -2.0718137326
H -3.0414291175 1.9501541752 -1.1471858699
H -4.3169211844 0.7173764722 -1.1407357375
H -2.9676458977 2.0022041566 1.3079326973
H -2.6138665118 0.5671691519 2.2462371337
H -4.9920952393 1.1130461416 2.5168638147
H -5.2641392554 1.0335324330 0.7836901208
H -4.2593688493 -2.7526474814 0.8823845113
H -2.5668030103 -3.1960418121 -0.6016890055
H -2.6759634275 -1.9463939030 -1.8365001748
H -0.3235354677 -2.6092175443 -1.5832662597
H -0.3901144008 -2.2854484793 0.1423962465
H -0.9419633750 -0.2536094213 -2.0624648730
H -0.9042138061 1.4757560832 -0.3624335816
H -0.2438252743 -0.6654991616 1.6985574855
H 1.3712449879 1.6843265804 0.5963560678
H 1.8963578582 0.5855326130 1.8541802155
H 1.3945824037 -1.1068814752 -2.0319205987
H 0.5789827812 1.7968741471 -1.8995285275
H 1.2910907614 0.8907752682 -3.2215386050
H 3.4172975565 1.6968210036 -2.5172221309
H 2.6722704025 2.4582555226 -1.1172343092
H 3.7420885453 -0.3737079176 -1.3671387420
H 6.0562450879 0.1509856739 -0.5757487807
H 5.3026166005 -0.9396501081 0.5887580280
H 5.9098169026 1.4260337567 1.7433813873
H 2.6793280173 -2.3040421075 -0.3571015140
H 1.4628361462 -2.0992226070 0.9101483962
H 3.0995120424 -1.5383170093 1.1885444599
H -0.2881418273 2.1232922927 2.0139606529
