63
CONF70
C 2.1300532042 0.9828290525 -1.5776215049
C 1.0066869362 2.0078341060 -1.4507169923
N 0.3938723502 1.9342802077 -0.1225806855
C 1.3810772756 2.2746564490 0.9049027353
C 2.5227105340 1.2623192745 0.9026042025
C 3.1709491704 1.2128577680 -0.4814903479
N 4.2575435062 0.2354568089 -0.5442841353
C 4.1840827505 -1.1458068258 -0.3807633819
C 3.1281529717 -2.0089733528 -0.1119051618
C 3.4134594723 -3.3738460058 -0.0094782023
C 4.7113155757 -3.8626988887 -0.1696892158
C 5.7766825139 -2.9997273206 -0.4387744679
C 5.4926959254 -1.6479087699 -0.5400595136
N 6.3087935544 -0.5607937897 -0.7927497833
C 5.5749475667 0.6112519634 -0.8011539767
O 5.9962492191 1.7499271432 -0.9951650668
C -0.8024300437 2.7769782414 -0.0399716694
C -1.6459441882 2.5023822658 1.2098430592
C -1.8605001184 1.0121496948 1.4844843241
C -2.4255398162 0.2266198769 0.2855190403
C -2.3986409566 -1.2612013954 0.5956126730
C -3.4215904959 -1.8919659208 1.3078277589
C -3.3422947557 -3.2429317854 1.6381930533
C -2.2201229169 -3.9501143044 1.2423804474
C -1.1824566303 -3.3685771342 0.5348035476
C -1.2848829078 -2.0167923095 0.2161133144
F -2.1372593467 -5.2721046580 1.5563956734
C -3.7854380572 0.7004497738 -0.1877689692
C -4.7607149630 1.1940515494 0.6834121788
C -6.0125376802 1.5918757411 0.2178361598
C -6.2705652449 1.4899129582 -1.1372296689
C -5.3362113211 1.0125564397 -2.0402978835
C -4.0937917355 0.6215171576 -1.5502055273
F -7.4877561982 1.8825409903 -1.6021665345
H 2.6054471570 1.0677424160 -2.5610759383
H 1.7039863163 -0.0230588875 -1.4958029872
H 0.2367379310 1.8021728982 -2.2034723367
H 1.4054499363 3.0234209805 -1.6553463287
H 1.7850842057 3.2957508683 0.7426801906
H 0.8982359842 2.2689717942 1.8868581026
H 2.1255435601 0.2788193680 1.1762767194
H 3.2722421603 1.5420399525 1.6510914610
H 3.6540474019 2.1801951197 -0.6661825923
H 2.1135584216 -1.6530367492 0.0170003510
H 2.6024980323 -4.0636861415 0.2003406421
H 4.8991184455 -4.9278686106 -0.0838369156
H 6.7890287686 -3.3690274460 -0.5639824413
H 7.3037999809 -0.5827356819 -0.9505245571
H -1.4076638542 2.5698061878 -0.9318636782
H -0.5461475880 3.8542545356 -0.0788330068
H -1.1862934473 2.9593351913 2.0939366573
H -2.6096326755 3.0078065549 1.0737887914
H -0.9014522610 0.5509886619 1.7450252089
H -2.5117279634 0.8807308401 2.3572694154
H -1.7301794736 0.3739213097 -0.5481907086
H -4.2996861368 -1.3282234122 1.6080445493
H -4.1343848254 -3.7403549286 2.1877308692
H -0.3227478815 -3.9598033267 0.2374837841
H -0.4807991187 -1.5402919126 -0.3392641400
H -4.5520756872 1.2789357652 1.7448223787
H -6.7709968438 1.9777611096 0.8904913428
H -5.5758047763 0.9553993468 -3.0967097239
H -3.3457775324 0.2460666569 -2.2436096780
