34
CONF4
C 6.1689069745 0.5052452087 0.0128266205
N 5.3973251043 1.7040409545 -0.3580700540
S 4.0003425613 1.6216727924 -1.2169049747
O 4.1278553449 0.5727007226 -2.2305917966
O 3.5927988883 2.9903947098 -1.5365656296
C 2.6798867197 0.9645134631 0.0144034412
C 1.3454395453 0.5475044924 -0.6794578397
C 0.1399259686 0.4283921254 0.3193991573
C -1.0653318783 -0.3963698456 -0.2577532109
C -2.4071797480 -0.1447907869 0.5202577995
C -3.4789934434 -1.2653273827 0.2760109761
C -4.9305399744 -0.8219173644 0.6684023237
C -5.9296180276 -2.0104290512 0.8583035697
F -5.8804840811 -2.8330593034 -0.1987334834
F -5.6479885261 -2.7013044764 1.9675096903
F -7.1697780784 -1.5157030957 0.9658649858
F -4.8919782409 -0.1303800965 1.8308681995
F -5.4212015350 -0.0250767683 -0.3043934042
F -3.4765132556 -1.5984375434 -1.0347317872
F -3.1428515364 -2.3518837641 1.0065604553
F -2.1398582134 -0.0903529163 1.8443329385
F -2.9203423664 1.0401778437 0.1208171591
F -0.7602280544 -1.7113158864 -0.1862204764
F -1.2482952909 -0.0531103110 -1.5520634565
F 0.5755556950 -0.1787445182 1.4472955036
F -0.2894341381 1.6736991481 0.6243388527
F 1.0396069092 1.4722393630 -1.6168272018
F 1.5335557984 -0.6484640687 -1.2811794642
F 3.2149401718 -0.1014262175 0.6444739762
F 2.4479187704 1.9399313025 0.9172306120
H 7.2215584263 0.7945974670 0.0599607337
H 6.0515129477 -0.2505381531 -0.7651027695
H 5.8568912261 0.0959141613 0.9775781821
H 5.4065970301 2.4776077794 0.3018361877
