59
CONF238
C 2.3463648670 2.5611624445 -5.6429810522
C 2.0066644144 3.9965675666 -6.1366682788
C 1.9048515086 4.8562061807 -4.8620995858
C 1.5265207273 3.8693524303 -3.7468299758
C 2.4045729152 2.6523417592 -4.1049240358
C 0.0406606484 3.5071342906 -3.8057901963
C -0.3859231757 2.5479746356 -2.7185347434
O -1.2710466312 1.7292118794 -2.8844499538
N 0.2722289178 2.6523897059 -1.4853107115
C 1.3740921631 3.4834880023 -1.2379702590
O 1.9453609956 3.4553830365 -0.1639950172
C 1.7951375892 4.4156195589 -2.3509215196
C -0.1319632941 1.7230569717 -0.4154070942
C 0.6448718036 0.4114058219 -0.4811667120
C 0.2340825628 -0.5443465145 0.6364856002
C 1.0236825740 -1.8601991783 0.5541870328
N 0.7599409545 -2.8697484818 1.5766462879
C 1.1367702449 -2.4551158442 2.9266529610
C 1.0425852395 -3.6475782785 3.8774976233
N -0.3082521626 -4.2021724305 3.8418779913
C -0.7157469198 -4.5911459831 2.4942734165
C -0.6054718726 -3.3911503679 1.5542249482
C -1.2276985910 -3.9109073429 4.8122992875
N -0.7725123118 -3.3229503444 5.9437157606
C -1.6736049662 -3.1032134172 6.8942547595
C -3.0172308639 -3.4378048480 6.7655284002
C -3.3771314740 -4.0228452504 5.5563898672
N -2.5135218427 -4.2630075207 4.5763863719
H 3.2910404203 2.1968545293 -6.0546020915
H 1.5746788203 1.8525865489 -5.9581652072
H 2.7615777912 4.3873150584 -6.8236926546
H 1.0567060391 4.0009452954 -6.6796318246
H 1.1913352017 5.6823183696 -4.9541648022
H 2.8827901496 5.2917944187 -4.6210637616
H 2.0820501041 1.7280973162 -3.6127523647
H 3.4300902512 2.8554736216 -3.7732315306
H -0.5655549706 4.4175595365 -3.6921586934
H 2.8547820223 4.6348280717 -2.1928071841
H 1.2463185581 5.3580214822 -2.2065999808
H 0.0516463043 2.2266033809 0.5364720450
H 0.4678124875 -0.0583362243 -1.4572183752
H 1.7176335412 0.6303985829 -0.4076631810
H -0.8420791793 -0.7467489819 0.5654839781
H 0.4062241461 -0.0624051739 1.6073040140
H 2.0979122286 -1.6291151931 0.5889896826
H 0.8354649258 -2.3238611289 -0.4248000749
H 2.1686219329 -2.0821941969 2.9064588382
H 0.4921768317 -1.6461256536 3.3244497156
H 1.2844665433 -3.3516414677 4.8977554129
H 1.7411236882 -4.4281654447 3.5487323939
H -0.0402138657 -5.3845254394 2.1483332275
H -1.7363622497 -4.9714621609 2.5212206483
H -0.8478043970 -3.7037998123 0.5305171959
H -1.3577586863 -2.6392873633 1.8656405986
H -1.3015280238 -2.6309481532 7.8036381335
H -4.4107296089 -4.3096026699 5.3617180884
H -1.2019622555 1.5388748698 -0.5344085228
H -0.2456991302 3.0478154745 -4.7547071238
H -3.7370664088 -3.2476048183 7.5514073038
