41
CONF3
C 2.8315441191 3.6804116854 0.0724456875
C 2.7495003998 2.2550040292 -0.3792118508
C 3.2181576668 1.2162798065 0.4184584151
C 3.1445042160 -0.1124424917 0.0307130060
C 2.5957494910 -0.4810884967 -1.1934907802
C 2.1396108839 0.5547180585 -2.0014066942
C 2.2089720953 1.8815292912 -1.6042304468
F 1.7271418790 2.8228073693 -2.4396540124
F 1.5984441105 0.2689246672 -3.2005501565
C 2.4402890255 -1.9122733387 -1.6185166410
O 1.0335767970 -2.2385648703 -1.7965507214
C 0.2955187744 -2.2763959908 -0.6554470209
O 0.7872511015 -2.1815208218 0.4525170262
C -1.1349243002 -2.3830086148 -0.9830198238
C -2.1248044135 -1.5631827518 -0.1167106813
C -2.1643606164 -3.0582210276 -0.0823212240
C -3.3071858196 -3.7198148247 -0.8238393145
C -1.7316531148 -3.8094782665 1.1549981127
C -1.6261537235 -0.7625686195 1.0108738899
C -1.2851424125 0.5224377889 0.9210129600
C -0.8209266169 1.3500680857 2.0823156712
F 0.4314171142 1.8356999400 1.8897519160
F -0.8018270384 0.6333134166 3.2231696566
F -1.6216372293 2.4243388862 2.2925080302
Cl -1.2995158376 1.4005177542 -0.5888922991
F 3.6176819301 -1.0502980416 0.8685466976
F 3.7523291871 1.5078855541 1.6212530140
H 2.4575398906 3.7776414135 1.0949272772
H 3.8717484935 4.0227074206 0.0663049075
H 2.2490606233 4.3286907558 -0.5817974241
H 2.8775788191 -2.0794189055 -2.6039336012
H -2.8738274038 -1.0623595342 -0.7265171596
H -4.1744651631 -3.8131403743 -0.1613915559
H -3.6052931777 -3.1404358023 -1.7021500753
H -3.0171794612 -4.7234916823 -1.1514997944
H -0.8816413323 -3.3504427881 1.6589864869
H -2.5722365485 -3.8643504003 1.8553423405
H -1.4521271813 -4.8322966744 0.8824402361
H -1.5430441225 -1.2253704628 1.9891390246
H -1.3530890104 -2.3874506709 -2.0451603225
H 2.8934816577 -2.5856995301 -0.8900413900
