33
CONF161
C 4.2193568400 1.7642101604 0.2191676319
C 5.5739043777 2.2109180425 0.7839593151
O 6.6730059599 1.9715392665 -0.0969361639
C 3.9972462154 0.2760019421 0.3252607008
C 2.6905462915 -0.2940430216 -0.3237311843
C 1.3756440356 -0.0666320378 0.4989611728
C 0.0716308488 -0.2188255803 -0.3637795179
C -1.2183176021 -0.4456828672 0.5037241519
C -2.5451110741 -0.1394476937 -0.2780745172
C -3.8122722566 -0.7805287951 0.3856415117
C -5.1625469010 -0.1467629127 -0.0875569114
F -6.1725371688 -0.9218069081 0.3283535061
F -5.3225995179 1.0763622140 0.4280420324
F -5.1975647105 -0.0693615285 -1.4252727035
F -3.7408053901 -0.6372896501 1.7291819612
F -3.8454451743 -2.0951597567 0.0815646730
F -2.7145898865 1.2005914411 -0.3345557978
F -2.4370009006 -0.6228418629 -1.5366947117
F -1.1678510149 0.3591897775 1.5885551727
F -1.2429884906 -1.7353391157 0.9095255766
F -0.0918415018 0.9069394077 -1.0962240092
F 0.2128557774 -1.2730332323 -1.1977764227
F 1.3831539995 1.1787265549 1.0294949121
F 1.3345119018 -0.9676757477 1.5076301587
F 2.5434567862 0.2716597749 -1.5512792093
F 2.8353753006 -1.6317558293 -0.4875074531
F 5.0250705008 -0.3998512452 -0.2940334055
F 3.9987686177 -0.1369778027 1.6349177050
H 3.4243361766 2.2709942336 0.7712931564
H 4.1419720302 2.0593456366 -0.8311267547
H 5.7498793033 1.7588090920 1.7690001523
H 5.5278494240 3.2946771766 0.9184486291
H 6.8693085980 1.0273021333 -0.0884859458
