22
CONF1
C 2.3616717342 -1.0540151080 0.0361882206
C 1.3779625636 0.0071238330 -0.4373439934
C 0.1099263630 0.0657512551 0.4286881542
C -0.8115493615 1.2313295020 0.0587919349
C -2.0687663587 1.2880902650 0.9285103478
O -3.0216035906 0.2871623816 0.5474089630
O -1.1911689905 1.1988753884 -1.3312360018
O -0.6565318601 -1.1453544750 0.3639026147
O 1.1009958171 -0.2756327993 -1.8120589270
O 1.8101352600 -2.3830150419 -0.0492922270
H 2.6132557268 -0.8868505842 1.0874020372
H 3.2810191404 -0.9888066625 -0.5607039479
H 1.8802189613 0.9850582451 -0.3302140168
H 0.4455623469 0.2498447983 1.4643296133
H -0.2435481891 2.1576947381 0.2081665782
H -1.7883298475 1.1954359104 1.9873750089
H -2.5669441385 2.2512167110 0.7825336543
H -2.5769813542 -0.5679043796 0.6592804452
H -1.9784330881 0.6325786164 -1.3773208692
H -0.0185129816 -1.8807547032 0.3557909583
H 0.2732811892 0.1937545414 -2.0205415943
H 1.6683414571 -2.5615822257 -0.9896569479
