50
CONF11
C 5.2919121879 -0.6533761051 -0.8306050141
C 4.0276982057 0.1570904801 -1.1156326184
C 3.1393289143 0.3095295325 0.1226319183
C 2.0129086385 1.3524122703 -0.0239773737
C 1.2634677245 1.3364239460 1.3115879846
C 0.4113819003 0.0377344503 1.3434031541
C -1.0301284679 0.3965736440 0.9541095743
N -2.1272243635 -0.5118089918 1.3515600392
C -2.3557041290 -0.6744260626 2.7817308961
C -3.2131760714 -0.1140642878 0.5599093822
C -4.5702317325 -0.3349940144 0.7864558833
C -5.4829859926 0.1180317659 -0.1711871805
C -5.0570815980 0.7716641301 -1.3250921545
C -3.6900149645 0.9901805892 -1.5454961871
C -2.7739985349 0.5741784904 -0.5935294516
C -1.2707279289 0.5425052053 -0.5677096581
C -0.7355073221 -0.7154368551 -1.2749411758
C 0.7427892841 -0.5865208950 -0.9807496433
C 1.0513104609 0.9350081947 -1.1591525986
C -0.3396173618 1.6348089709 -1.1344052363
O -0.6717584138 1.9968479932 -2.4852863463
N 1.0004516387 -0.9830991473 0.4260194083
C 2.4738776561 -1.0275616156 0.5582819472
O 2.8546404942 -1.3206494493 1.8967273708
H 5.0506153656 -1.6601093139 -0.4717809194
H 5.8995957064 -0.1635548189 -0.0617427556
H 5.9054320374 -0.7610556763 -1.7305198948
H 4.3074252888 1.1584452651 -1.4679209865
H 3.4642131980 -0.3118460384 -1.9318548535
H 3.7794912575 0.6404082963 0.9510155465
H 2.4416223219 2.3402778525 -0.2246619630
H 1.9849100973 1.3375219834 2.1345286672
H 0.6341302348 2.2210753106 1.4408090793
H 0.4152550343 -0.3780198410 2.3547998114
H -1.2383884189 1.3784503293 1.4207245933
H -2.6743308939 0.2673944444 3.2601446952
H -3.1241698821 -1.4328110625 2.9529201794
H -1.4391480567 -1.0208234325 3.2646702350
H -4.9212871185 -0.8424176057 1.6787554534
H -6.5443027669 -0.0419596338 -0.0046828276
H -5.7833820793 1.1142117369 -2.0551180390
H -3.3635439114 1.4830716778 -2.4555892442
H -0.9352834858 -0.6354895035 -2.3484801072
H -1.1694961630 -1.6424630078 -0.8937580583
H 1.3614393148 -1.2190243944 -1.6254188735
H 1.5088881712 1.1296537685 -2.1334174394
H -0.3470967660 2.5366589719 -0.5096195428
H -1.4188317795 2.6066866357 -2.4474177321
H 2.8016843701 -1.8403883983 -0.1094411857
H 2.4529485883 -2.1699449140 2.1284037238
