15
CONF1
C -1.8206580133 0.7715861361 0.3545962987
C -1.8713275994 -0.6266227821 0.3758189458
C -0.7290490872 -1.3956517061 0.1555428815
C 0.4519679308 -0.7125958490 -0.0842934428
C 0.5022730713 0.6750911547 -0.1053546723
C -0.6259448850 1.4488342098 0.1123644358
C 1.8961204398 1.0767595429 -0.3844100244
O 2.3905085341 2.1586485208 -0.4906397746
O 2.6450899160 -0.1037971818 -0.5232906582
C 1.8128591286 -1.2223360873 -0.3490780225
O 2.2274467011 -2.3398945122 -0.4227377552
H -2.7299636420 1.3366300062 0.5303611854
H -2.8188904475 -1.1188705130 0.5678333032
H -0.7560043468 -2.4795851702 0.1698325950
H -0.5744274004 2.5318038312 0.0934547045
