27
CONF2
C 1.6217295592 0.1049158195 -0.8565667395
C 0.5480504262 -0.9609076596 -1.1241300509
C 0.3605841780 -1.8276585221 0.1304322834
C -0.0781113429 -0.9422415563 1.3067864209
C 0.9972953460 0.1218441349 1.5746467362
C 1.1862123187 0.9901341004 0.3209948552
C -0.1483715648 1.6746649572 -0.0229424287
C -1.2219982058 0.6133055326 -0.2881027820
C -0.7840565271 -0.2691792215 -1.4622026484
C -1.4066811484 -0.2500223209 0.9587139939
O -2.4982571893 1.2316586336 -0.5586008840
H 2.5796329631 -0.3792151290 -0.6267230934
H 1.7691901350 0.7205066666 -1.7534591794
H 0.8537669889 -1.5921706997 -1.9676997199
H -0.3940544765 -2.6024541425 -0.0579866239
H 1.3016336524 -2.3359918600 0.3767879312
H -0.2179080222 -1.5596529248 2.2025521625
H 1.9453966384 -0.3637762072 1.8393459034
H 0.6998294940 0.7509457083 2.4237269185
H 1.9487951699 1.7553638312 0.5117843028
H -0.0333836663 2.3040105901 -0.9164446065
H -0.4738965569 2.3181420493 0.8045409403
H -0.6710002560 0.3536375525 -2.3605644652
H -1.5640769853 -1.0149287262 -1.6628928115
H -1.7383339473 0.3829996823 1.7919507167
H -2.1890029912 -0.9962863188 0.7692929463
H -2.3929834922 1.7723559348 -1.3532398769
