43
CONF24
C 3.0681524544 -2.1535884717 -3.6016697016
C 1.7358000159 -2.4748467706 -2.9658341449
O 1.5171566294 -1.4789874840 -1.9357927313
N 0.3042259354 -1.7347508986 -1.3104502795
C 0.0297995146 -0.8932038241 -0.3865333837
C -1.2193789964 -1.0304480343 0.3819519049
C -2.1188874616 0.0545666493 0.4478559014
C -3.2972851446 -0.0511550265 1.1839801466
C -3.5733543949 -1.2262866007 1.8736166862
C -2.6854998798 -2.2893330927 1.8301884541
C -1.5021777775 -2.2115938970 1.0840755427
O -0.5794119447 -3.2127043128 1.1251504134
C -0.8645842741 -4.3442200227 0.2670390113
Cl -3.0180321154 -3.7226253144 2.7864677259
O -1.7513580194 1.1593163746 -0.2473029046
C -2.5929129472 2.3201983965 -0.1638353851
O 0.8363459859 0.2117243775 -0.1972863989
C 0.9539890811 0.7677252411 1.0586576401
O 0.7263976727 0.1474300274 2.0713509712
C 1.4107498439 2.1685962682 0.9898340454
C 1.7395056974 2.8082391155 2.1913258421
C 2.1517101584 4.1333835435 2.1801256718
C 2.2342905266 4.8275244635 0.9732233281
C 1.9045561621 4.1941760245 -0.2238455773
C 1.4945895783 2.8665144370 -0.2211764751
H 3.2761715214 -2.8833237666 -4.3892784121
H 3.0566863019 -1.1559112649 -4.0499024471
H 3.8748577771 -2.2016439848 -2.8646569516
H 0.9166477940 -2.4205737935 -3.6928408853
H 1.7365319863 -3.4691039420 -2.5026583064
H -4.0029846881 0.7675120446 1.2343046337
H -4.4818604515 -1.3069346743 2.4598412707
H -0.0960618657 -5.0859721161 0.4888699285
H -0.8007778750 -4.0362138126 -0.7806784423
H -1.8532929639 -4.7596363721 0.4837697165
H -2.0893172306 3.0852880734 -0.7546687203
H -3.5826499141 2.1153879507 -0.5863745723
H -2.6886428417 2.6556646295 0.8746592919
H 1.6686257589 2.2563282248 3.1221683394
H 2.4087797883 4.6276742569 3.1112158451
H 2.5553295613 5.8644151482 0.9662557776
H 1.9659351614 4.7369948811 -1.1613847883
H 1.2316357789 2.3743979633 -1.1497574537
