45
CONF39
C 4.5579871120 2.5779383801 0.9720332466
C 3.5701712762 2.6032565837 -0.1929980919
C 2.5444162814 1.4722637131 -0.1200604730
C 1.5370798964 1.5098221588 -1.2693731945
C 0.5675788614 0.3248903948 -1.2888367201
C -0.3259214345 0.2053667652 -0.0397479949
C -1.3121386326 -0.9744554928 -0.1482807698
C -0.6474645908 -2.3486079761 -0.2419894809
C -1.6547398666 -3.4929473970 -0.1314769490
C -1.0115708906 -4.8741641386 -0.2526719008
C -2.0251096494 -6.0094550047 -0.1196411897
C -1.0738162711 1.4914418282 0.2398451238
C -0.9154683627 2.1605764648 1.4563802529
C -1.6066102137 3.3416273590 1.7242427350
C -2.4729641823 3.8747264800 0.7734361884
C -2.6421679634 3.2162942718 -0.4443374736
C -1.9491123998 2.0379607331 -0.7067960274
H 5.2855491809 3.3928854268 0.9012568349
H 5.1123613506 1.6328843657 0.9926863032
H 4.0337782009 2.6770808010 1.9292519222
H 3.0415584648 3.5659724835 -0.2080985545
H 4.1158748582 2.5349229133 -1.1435240124
H 3.0671778565 0.5046188210 -0.1243656499
H 2.0176654248 1.5355036184 0.8414337138
H 0.9706659200 2.4497485602 -1.2209365218
H 2.0855397556 1.5277059755 -2.2207543191
H 1.1454710817 -0.6011307514 -1.3953095142
H -0.0758048087 0.3943295895 -2.1764498156
H 0.3188204746 0.0085359847 0.8270050348
H -1.9644986231 -0.9568182450 0.7355613791
H -1.9639193231 -0.8213608851 -1.0195171204
H -0.1040906599 -2.4435575150 -1.1903330700
H 0.1009873963 -2.4446343047 0.5579020952
H -2.4210785128 -3.3808786675 -0.9118604196
H -2.1811057608 -3.4215479449 0.8308818508
H -0.2362289800 -4.9783624144 0.5181171072
H -0.4976612595 -4.9486638620 -1.2202413805
H -1.5454425976 -6.9892828671 -0.2103607290
H -2.7945677631 -5.9381260170 -0.8965769435
H -2.5290064059 -5.9699483584 0.8525812482
H -0.2399165602 1.7502475654 2.2029241286
H -1.4665569781 3.8451239082 2.6763969416
H -3.0122118758 4.7946358896 0.9776643932
H -3.3156695392 3.6237859874 -1.1927888176
H -2.0878382602 1.5397959246 -1.6623985677
