29
CONF3
C 0.8219037042 1.8377192102 -2.9956630871
C -0.5998749641 1.4524201076 -2.6688616910
O -0.5973864741 0.3376937796 -1.7063145412
P -0.9782681615 0.5438748292 -0.1787693372
S -0.5099282753 2.2000532257 0.7116084853
O -2.5122665933 0.1124964307 -0.1530073193
C -3.3967223423 0.4066311910 0.9837928785
C -3.1042235356 -0.4835897297 2.1688862750
O -0.3217064447 -0.8312387289 0.4651132610
C 1.0040025682 -1.0074141830 0.6965815529
N 1.8879676864 -0.2590799220 0.0644340825
C 3.1770195126 -0.4389562965 0.2741254501
C 3.6658117314 -1.4128205415 1.1450798041
C 2.7433184238 -2.2121895072 1.8140229507
C 1.3916063663 -2.0094996929 1.5948472609
Cl 0.2062323869 -2.9782364601 2.4149357065
Cl 5.3642035173 -1.6499061845 1.4135364280
Cl 4.2645498169 0.6077479327 -0.6042138924
H 1.3316142820 2.2293900066 -2.1114244399
H 1.3792643936 0.9768401067 -3.3753328653
H 0.8128608180 2.6141763042 -3.7672591057
H -1.1325449369 1.0634695550 -3.5395504535
H -1.1642135390 2.2914069341 -2.2508116411
H -4.3951905922 0.2286429888 0.5802551385
H -3.2915025743 1.4673500403 1.2312725329
H -3.8553295507 -0.2944946043 2.9424258243
H -3.1532490465 -1.5389488372 1.8867300336
H -2.1178765645 -0.2740679527 2.5924442082
H 3.0799286999 -2.9794703141 2.5012190103
