47
CONF12
C 2.8020253300 -0.4941246200 -4.8251242557
C 3.0718336683 0.1819102563 -3.5400223361
C 2.2997155363 0.4793231511 -2.4468012517
C 3.2100074980 1.1420187618 -1.5632133576
N 4.4137050295 1.2335060611 -2.0714614775
O 4.3225105340 0.6320354146 -3.3360119545
C 2.9435675582 1.6736885689 -0.2129939038
C 2.7664307490 3.0454946993 0.0171212859
C 2.4454815999 3.5428077136 1.2753390294
C 2.2884680803 2.6575585478 2.3331464278
C 2.4518359569 1.2897461002 2.1486474748
C 2.7761766223 0.8169325145 0.8848140386
Cl 2.9534018973 -0.9057566923 0.6525884798
Cl 2.9011703570 4.1635848502 -1.3144970270
C 0.8874910393 0.1024701445 -2.2513537571
O 0.3307992555 -0.7725603667 -2.9081388901
N 0.2309655731 0.7796416833 -1.2608037159
C -1.0435716585 0.3148769294 -0.7917023205
C -1.0560750206 -1.0449587172 -0.0178502463
N -1.3539045452 -0.2913222690 1.2086224041
C -1.4690192875 0.9365886651 0.5576124083
O -1.7768515963 2.0317518853 0.9507864991
C -2.2717945088 -0.8788868531 2.1550275347
C -3.3615245283 -1.6304012785 1.3006057341
S -2.4565269149 -2.2121222381 -0.2374191193
C -4.4584611605 -0.6340217475 0.9180627010
C -3.9619805400 -2.8406985295 2.0099626975
C -1.5864727637 -1.7846853869 3.1643074269
O -1.9799637346 -1.9471545517 4.2932186966
O -0.5042050389 -2.4091345001 2.6474814961
H 1.7466304602 -0.7594364678 -4.8767433007
H 3.0726413604 0.1577238486 -5.6615129489
H 3.4027097228 -1.4063105018 -4.9023359993
H 2.3082270164 4.6081362554 1.4125873287
H 2.0263994039 3.0376001870 3.3144123965
H 2.3237667898 0.5936034940 2.9682640698
H 0.7216208489 1.4648386141 -0.7055348962
H -1.8217677118 0.3622854426 -1.5601369166
H -0.1049776478 -1.5820808242 -0.0121765205
H -2.7562191014 -0.0836846030 2.7302417164
H -5.1517276267 -1.0933238196 0.2090730383
H -4.0466650041 0.2645765676 0.4506143147
H -5.0206589792 -0.3338415362 1.8105318274
H -4.4399796927 -2.5276388674 2.9439248183
H -4.7222231615 -3.3046136020 1.3755352671
H -3.2050818356 -3.5943806263 2.2400013137
H -0.1479297547 -2.9815608468 3.3461019601
