45
CONF11
C 2.9392358478 1.8770067433 -2.3507567546
C 2.7696557522 0.7766645964 -1.3122238670
C 1.7916934776 1.2245781046 -0.2223357081
O 1.9758540952 2.2778039958 0.3666359277
N 0.7548887819 0.3782398902 0.0342589131
C -0.2123427317 0.6567335690 1.0470024346
C -1.7080969440 0.8935798099 0.6370166262
N -2.0581490261 -0.3230583971 1.3770433436
C -0.7627248677 -0.5475210984 1.8531979294
O -0.3178882311 -1.3704586381 2.6079444489
C -3.2889587371 -0.3173607789 2.1274000365
C -3.4339784473 1.1334846320 2.7212743088
S -2.6738252767 2.2526542558 1.4248589368
C -4.8814340527 1.5634637632 2.9470993446
C -2.6416082050 1.2166417179 4.0276638336
C -4.4483275875 -0.6935335429 1.2195483268
O -4.5086539234 -0.4651575291 0.0384191603
O -5.4303568163 -1.3135779863 1.9198168351
O 2.2792415798 -0.4344096035 -1.9048485613
C 3.1482512854 -1.2621077099 -2.5698958723
C 4.5243532238 -1.0566821967 -2.6710312961
C 5.3019087985 -1.9855342980 -3.3614980449
C 4.7279791875 -3.1047015993 -3.9501308144
C 3.3512027795 -3.2966862709 -3.8451573971
C 2.5624028756 -2.3836673282 -3.1622225893
H 3.2747836704 2.7917219524 -1.8584568494
H 3.6685379209 1.5827443878 -3.1088191986
H 1.9821539159 2.0714483024 -2.8429448685
H 3.7153795700 0.5797999437 -0.7878285585
H 0.6983014029 -0.4738459910 -0.5038442340
H 0.1665943833 1.4516671247 1.6965557145
H -1.9213774849 0.8597513009 -0.4343421092
H -3.2185001707 -1.0398020355 2.9473902686
H -5.3624458551 0.8958209127 3.6694780687
H -5.4564316492 1.5569894977 2.0176876571
H -4.9081968138 2.5776640516 3.3551210074
H -2.6086896838 2.2502926114 4.3809320508
H -3.1215543399 0.6004779159 4.7977911658
H -1.6117538210 0.8712014339 3.9047053516
H -6.1504723589 -1.4956568776 1.2943259945
H 5.0026212618 -0.1910747528 -2.2302106551
H 6.3720167667 -1.8203670673 -3.4364242465
H 5.3429696114 -3.8190967598 -4.4859131660
H 2.8857770325 -4.1652453676 -4.2999542108
H 1.4899640151 -2.5210104893 -3.0743294821
