42
CONF94
C -5.6320598588 1.7794895176 3.4520578082
C -5.9254457475 1.9544607363 1.9642497117
C -4.8721182929 1.3085915706 1.0992791153
O -5.1707861072 1.4788048136 -0.2701842413
C -3.9224437472 1.2721400298 -0.9282334445
C -2.8942083313 1.8693531828 0.0555490578
O -3.6010914140 1.9435773344 1.2987820830
C -1.6599756824 1.0029296443 0.2285578361
O -1.0381441499 0.9406436241 -1.0539034065
C 0.0915939123 0.1795726116 -1.1808112394
C 0.6492944773 0.1304818407 -2.4605010948
C 1.7987549281 -0.6089161544 -2.6916789970
C 2.3901128851 -1.3115153420 -1.6464927062
C 1.8366382083 -1.2759084720 -0.3737401478
C 0.6886118309 -0.5246107384 -0.1334919356
O 3.4869424685 -2.1070971970 -1.9381693240
C 4.6350864213 -1.9587176989 -1.1891947623
C 5.4882202867 -3.0593432539 -1.1475658955
C 6.6910802907 -2.9654603986 -0.4587983892
C 7.0437635368 -1.7857272472 0.1924682282
C 6.1828205028 -0.6936383256 0.1408280876
C 4.9767607187 -0.7684209136 -0.5494167194
H -5.5759005600 0.7195139056 3.7223052757
H -6.4193505016 2.2366251585 4.0572404311
H -4.6807861377 2.2474165749 3.7182771186
H -5.9722719299 3.0147661703 1.6940498216
H -6.8886216092 1.5017502545 1.7032456742
H -4.7677542880 0.2274129157 1.3257555886
H -3.7334297551 0.1978235560 -1.0838520165
H -3.9491440040 1.7783022980 -1.8942838393
H -2.5993667768 2.8844561952 -0.2379940923
H -1.9573339356 -0.0010328953 0.5688128594
H -0.9821754194 1.4446616328 0.9722357515
H 0.1702248073 0.6828849494 -3.2613879529
H 2.2439428011 -0.6546803520 -3.6795154380
H 2.3037929351 -1.8323963512 0.4319873955
H 0.2712185200 -0.5074932954 0.8656643234
H 5.1962294712 -3.9700151622 -1.6590125423
H 7.3545245496 -3.8239030453 -0.4270419439
H 7.9815823788 -1.7178273141 0.7328822651
H 6.4513043779 0.2339286184 0.6366581669
H 4.3099091412 0.0851689210 -0.5956163759
