70
CONF425
C -0.2071458834 -1.8611686903 1.6645575672
C -1.4401853950 -2.5250053666 2.3243590439
C -1.6382859584 -1.9425376610 3.6840566181
C -2.1751359117 -2.3854628347 4.8646005356
N -2.0769302704 -1.3722616472 5.8180189003
C -1.4621577074 -0.2719068146 5.2604615766
C -1.0987981324 0.9838805379 5.7484831494
C -0.4593040079 1.8378450547 4.8558989668
C -0.1796958399 1.4801655838 3.5196091468
C -0.5491659575 0.2340377999 3.0303342062
C -1.1878029923 -0.6199206643 3.9256641375
C -0.3591326941 -0.3113817001 1.6296375306
C 0.8040982681 0.3473094937 0.8940942273
C 0.9207609520 -0.2609149249 -0.5074222953
C 1.1451935651 -1.7628421318 -0.3667788930
N -0.0005958199 -2.3919671695 0.3039837333
C 0.1705000435 -3.8531522327 0.3041630865
C -1.0327683650 -4.6408194133 -0.1320165887
C -2.1390911650 -4.1395265423 -0.6698652179
C 2.0638165812 0.3686551756 -1.2866124200
O 3.1950290298 -0.1114235431 -1.1959825867
N 1.7704339639 1.4776112935 -2.0640319639
C 0.4105155375 2.0454212439 -2.0940850170
C -0.4945291084 1.4260130572 -3.1602309444
C -1.9573907610 1.7515068967 -2.8584179686
N -2.4154121597 1.1171857060 -1.6141474823
C -2.7817690548 -0.2803807150 -1.8294383999
C -3.5394980933 1.8397198581 -1.0247468129
C 2.6965272702 2.1236951174 -2.9697272396
O 2.2951804979 3.0337059017 -3.6844486700
N 3.9614395122 1.6603696548 -2.9704317852
C 4.9704462545 2.2851644047 -3.8169152295
C 5.5185051626 3.5805092874 -3.2227750896
H 0.6777293605 -2.0843794856 2.3009729602
H -2.3111679618 -2.3348478724 1.6824621512
H -1.3230072010 -3.6109095799 2.3685684324
H -2.6238136888 -3.3338141471 5.1244614271
H -2.3847556210 -1.4512646365 6.7705193217
H -1.2936401323 1.2906685406 6.7709833226
H -0.1575150152 2.8212155086 5.2023076178
H 0.3312678559 2.1997727509 2.8888323700
H -1.2735686047 -0.0986477939 1.0501614239
H 0.6437711767 1.4288983450 0.8376806381
H 1.7419759436 0.1845531392 1.4413899398
H -0.0332107479 -0.1148108172 -1.0206009068
H 1.2422659262 -2.2098319259 -1.3630143046
H 2.0959137340 -1.9411735333 0.1676577986
H 0.9917751041 -4.1165063820 -0.3783672790
H 0.5123978390 -4.2173313445 1.2902959948
H -0.9317828549 -5.7201460920 -0.0121383839
H -2.2482769687 -3.0682970287 -0.8027123832
H -2.9520660494 -4.7843569842 -0.9860193936
H 0.5170296089 3.1152230902 -2.2839786688
H -0.0492620612 1.9213784581 -1.1136263812
H -0.2203763905 1.8147444627 -4.1462445921
H -0.3444203709 0.3401686467 -3.1966653359
H -2.5989110022 1.4717734893 -3.7158722036
H -2.0525107852 2.8388448830 -2.7392811776
H -3.0327678341 -0.7453885688 -0.8698915589
H -1.9447467996 -0.8421242774 -2.2547103220
H -3.6509208984 -0.3907285294 -2.5077666949
H -3.2464581844 2.8710584069 -0.8035610845
H -4.4300198115 1.8653876284 -1.6832262801
H -3.8290948982 1.3613071688 -0.0829693919
H 4.1851279725 0.9208502204 -2.3110222916
H 5.7746868532 1.5546136563 -3.9542477850
H 4.5256256987 2.4834915961 -4.7974583354
H 4.7121987347 4.3085638374 -3.1028535424
H 6.2769058806 4.0112323124 -3.8843471530
H 5.9759693350 3.3986885779 -2.2455651030
