41
CONF45
C 6.3116493758 0.7383674301 -2.2927945164
N 5.1738226395 0.3416649387 -1.4723429966
C 3.9491706000 -0.0269825421 -1.8948264544
C 3.2060433236 -0.3492826632 -0.7674846307
C 4.1037553574 -0.1197908839 0.3066424839
N 5.2903159588 0.3050256161 -0.1354802969
C 3.9162776778 -0.1973121303 1.7780934397
F 2.8061952258 0.5226022331 2.1678627923
F 3.6736963184 -1.5060682109 2.1824654309
C 1.7917908556 -0.7652268774 -0.8234494673
O 1.0652201632 -0.4370915847 -1.7637444151
N 1.3628238779 -1.5353510887 0.2202009163
C 0.0330853533 -1.9819839701 0.3996108780
C -0.1993366775 -3.3363773935 0.6856684984
C -1.4850869963 -3.8008883648 0.9407211612
C -2.5815282965 -2.9310084661 0.9237606561
C -2.3418591574 -1.5939212245 0.6610383053
C -1.0492514568 -1.1118111605 0.3916363006
C -1.1680468380 0.3826630851 0.1748890058
C -1.9299812166 0.5839387904 -1.1769482821
C -3.3645325592 0.0547038128 -0.8728049032
C -3.2752262834 -0.4003739601 0.6188774287
C -2.3103847071 0.6488984917 1.1392694875
C -2.4278598704 1.5297213087 2.1175067170
Cl -3.8611153596 1.6692131500 3.1095824496
Cl -1.1599463942 2.6569935177 2.5424116245
H 5.9888860230 0.7717454413 -3.3335428886
H 7.1197795942 0.0114574375 -2.1797565900
H 6.6586543677 1.7260111710 -1.9810170371
H 3.6841460168 -0.0490681825 -2.9418057650
H 4.7866720038 0.1685134366 2.3296388674
H 0.6434313822 -4.0209365145 0.7119641760
H -1.6332428560 -4.8528569530 1.1634755050
H -3.5824105387 -3.2926403977 1.1375173665
H -1.9478735463 1.6474554339 -1.4306374289
H -1.4304690075 0.0415199631 -1.9797478097
H -4.1087854218 0.8496673989 -0.9700003897
H -3.6590892145 -0.7776848536 -1.5166793109
H -4.2278711223 -0.5168159492 1.1320847098
H -0.2599492128 0.9693625238 0.2924381083
H 2.0656008736 -1.9653665131 0.8060068786
