60
CONF12
C -0.2066123374 -0.8634540935 2.0889450383
C -0.8425536625 -1.5053675860 0.9071030765
C -1.2955565911 -0.8997955714 -0.2667352279
N -1.8325088176 -1.8898554205 -1.0436974164
N -1.7427851128 -3.0873631455 -0.4497167325
C -1.1538767293 -2.8674214095 0.7378562357
C -0.9039688148 -3.9835512788 1.6938168248
C -2.3946157638 -1.7816130597 -2.3819218185
C -1.2928309308 0.4944476389 -0.6369932213
C -0.2388329344 1.3452249122 -0.5150517585
C -0.4841223271 2.7318159464 -0.7061271244
N -0.6469139029 3.8709735235 -0.8523533137
C 1.1517107282 0.9437531296 -0.2223566075
C 1.9480561088 1.7174883815 0.6234646601
C 3.2539729321 1.3352073020 0.9166364497
C 3.8123801830 0.1763880457 0.3710312854
C 3.0085441034 -0.5780584843 -0.4986304684
C 1.7084726087 -0.2053990464 -0.7975626588
C 5.2375806943 -0.2838581837 0.6764450510
C 6.0434327787 -0.3491907034 -0.6353837567
C 5.9616110858 0.6619379605 1.6418888026
C 5.1871111792 -1.6854109614 1.3157024181
O -2.4732863950 1.0147251930 -1.1649227685
C -3.5249198792 1.2084278355 -0.2771555361
O -3.4096057035 0.9752627193 0.8983295150
C -4.7399441807 1.7760861044 -0.9877776068
C -5.1564853766 0.8438821315 -2.1377273082
C -5.8796697940 1.9070389139 0.0252175455
C -4.3664626932 3.1636396318 -1.5455727945
H -0.4759188161 -1.3955395477 3.0058083758
H 0.8878482226 -0.8692770553 2.0058767828
H -0.5193552341 0.1798775208 2.1877685534
H -1.4356450375 -3.8186735824 2.6373056861
H -1.2409494445 -4.9307234555 1.2674302524
H 0.1619383732 -4.0662022275 1.9311811208
H -2.1895729040 -2.7112170499 -2.9148891185
H -3.4753595981 -1.6168323225 -2.3385381236
H -1.9239760863 -0.9497274765 -2.9093089417
H 1.5409818828 2.6183949850 1.0738474655
H 3.8318025801 1.9597706139 1.5871612750
H 3.4073095567 -1.4732653361 -0.9649319148
H 1.1210391993 -0.8044973451 -1.4857039378
H 7.0660112427 -0.6808147366 -0.4248635356
H 6.0904189235 0.6372558084 -1.1086269350
H 5.5995230434 -1.0511180111 -1.3471800031
H 6.0535300154 1.6708081555 1.2264277501
H 5.4466781071 0.7268473112 2.6060522433
H 6.9711592045 0.2816992934 1.8261990821
H 4.7264374344 -2.4178382548 0.6464305345
H 4.6134054054 -1.6639162659 2.2484168494
H 6.2033240464 -2.0256823590 1.5429451100
H -4.3678611733 0.7570212862 -2.8890662511
H -5.4030194950 -0.1548620278 -1.7634096654
H -6.0478995369 1.2592532491 -2.6178285021
H -6.1459976206 0.9336808632 0.4468340719
H -5.6038613757 2.5752957476 0.8452525808
H -6.7578558194 2.3195241291 -0.4799952709
H -3.5762232649 3.0919272882 -2.2967445456
H -4.0309790520 3.8311787083 -0.7456661523
H -5.2542522239 3.6016910073 -2.0120588084
