46
CONF6
C 1.8255462309 -4.0243645094 0.4076167944
C 1.4513428505 -2.7076502384 -0.2641541146
C 2.6710063516 -1.9583933541 -0.9203664891
N 2.3200036868 -0.5570194172 -0.9163525073
C 1.5669404477 -0.0403422341 0.2348339781
S 0.8266678414 -1.5167688084 1.0482834748
C 0.7224818295 0.8180484361 -0.7706684453
C 1.5977376987 0.1599256212 -1.8618805958
O 1.6620615095 0.1998322589 -3.0679039705
N 0.7188461539 2.2425434119 -0.6835550868
C -0.2978338352 2.9948019766 -0.1762361251
O -0.2189194025 4.2181790835 -0.0899658077
C -1.5191296665 2.2469589666 0.2749507268
C -1.5155990717 1.5740018131 1.5029956479
C -2.6740798273 0.9511883893 1.9743289607
C -3.8237833586 1.0069689168 1.1927702442
C -3.8532532191 1.6587997783 -0.0361358264
C -2.6894178025 2.2839380295 -0.4933458169
O -2.5798358828 2.9359165257 -1.6808390378
C -3.7436427176 2.9972142976 -2.5179845650
O -0.3237654118 1.5891345964 2.1620073062
C -0.2764127050 0.9992459133 3.4704421710
C 3.9692718364 -2.1730897829 -0.1581467096
O 4.3424856698 -1.4901515447 0.7684634451
O 4.6433934697 -3.2317712444 -0.6381567363
C 0.3760465543 -2.9331702850 -1.3268501753
H 2.5735330221 -3.8882375028 1.1931456245
H 0.9360086337 -4.4768629629 0.8544405851
H 2.2177828300 -4.7189474269 -0.3420460663
H 2.1551709311 0.5322566257 0.9547938452
H 1.5711533611 2.7421893514 -0.9070240129
H -2.6887491172 0.4329636655 2.9240891704
H -4.7268069915 0.5234413544 1.5522629093
H -4.7653369565 1.6730343321 -0.6180758068
H -4.0687613047 1.9922753956 -2.8097656253
H -3.4380139660 3.5566383630 -3.4021121963
H -4.5617830695 3.5224999595 -2.0125888370
H -0.5245817276 -0.0668850946 3.4307656952
H -0.9598556745 1.5169365157 4.1526889353
H 0.7522438685 1.1239858125 3.8093017928
H 5.4421890385 -3.3591967462 -0.0964700079
H -0.5252600822 -3.3419305147 -0.8630164427
H 0.7413482665 -3.6476099281 -2.0736013425
H 0.1030604386 -2.0055765751 -1.8371404463
H -0.3010332776 0.4357497942 -0.8402478198
H 2.7930074961 -2.3066519074 -1.9508169095
