35
CONF4
C -2.4570524047 -1.0094819686 2.5835221325
C -2.4481791088 -1.0694996686 1.0790496971
O -3.4927905047 -1.2115703460 0.4262660855
N -1.2332548864 -0.9724100340 0.4852712051
C -1.0926072109 -1.0343638918 -0.9649457305
C 0.3045341836 -1.5497424514 -1.3179411111
O 0.6165082781 -2.7701484410 -0.7380636389
O 1.2865231117 -0.5907690389 -0.8700952565
C 1.1704938057 0.7074359457 -1.4737228368
C 2.2882736463 1.5478456597 -0.8927309962
O 2.1133323637 1.7855300763 0.5290894970
P 2.2412370676 0.6523237592 1.6517396447
O 3.2708710056 -0.4478255686 1.1050140678
O 3.1231581592 1.4340845755 2.7295048402
O 0.9489787997 0.1303926259 2.1790363185
C -0.2174444742 1.3010310252 -1.2167296384
O -0.2863578262 2.5175612358 -1.9584998795
C -1.2967492177 0.3187437375 -1.6550153391
O -2.5725987581 0.8955286767 -1.3765979693
H -3.1398551075 -0.2157133229 2.8983146572
H -2.8549072056 -1.9558662373 2.9623945006
H -1.4678642962 -0.8357629865 3.0102303983
H -0.4416875887 -0.6482817794 1.0449521614
H -1.8323683743 -1.7461518666 -1.3495032911
H 0.3987080397 -1.6671325024 -2.4062857949
H 0.2770008844 -2.7789387682 0.1703974868
H 1.3351478189 0.6337094315 -2.5617512492
H 2.2848216081 2.5374019611 -1.3512976364
H 3.2555060357 1.0654602438 -1.0667260510
H 2.8514729738 -0.9989746284 0.4175319511
H 2.8916655779 1.2000187168 3.6410652619
H -0.3356529555 1.4998463069 -0.1412339723
H -1.1590160872 2.8997480994 -1.7964414361
H -1.1989054671 0.1595314635 -2.7419725564
H -3.1309419071 0.2164397800 -0.9603370106
