47
CONF36
C -3.4271296950 1.6768637902 2.2205796909
C -3.6089559322 0.1832306583 2.4866173570
C -5.0475367689 -0.3093137780 2.2911027492
C -5.5825392947 -0.1290425279 0.8867267872
O -4.7391072179 -0.9262227969 -0.0046710181
C -4.7961742918 -0.6425242215 -1.3043782112
O -5.5379249240 0.1728874059 -1.8149725017
C -3.8400907936 -1.4991460493 -2.1352461149
C -4.6049708902 -2.6638574739 -2.7483206562
O -2.7764770315 -2.0637924650 -1.3664344027
C -1.8774546327 -1.2154524231 -0.7770974448
C -0.9577828471 -1.8252323402 0.0823301565
C -0.0127603731 -1.0593120778 0.7475065879
C 0.0094202496 0.3150538820 0.5459469347
C -0.8898716426 0.9314477008 -0.3045966191
C -1.8426601434 0.1660211268 -0.9754023194
O 0.8997995543 1.1087571054 1.2849293446
C 2.1710666708 1.2532249161 0.8270098351
N 2.5248202899 0.6875677834 -0.3168198204
C 3.7877424167 0.8610645895 -0.7306694748
C 4.7174632503 1.6006857861 -0.0161145818
C 4.3236639404 2.1925587648 1.1917847171
C 3.0294676010 2.0208169256 1.6282576093
C 6.1202929912 1.7725615617 -0.4941056814
F 7.0212121956 1.2241262202 0.3674341099
F 6.4607065030 3.0854797285 -0.6038930706
F 6.3344950694 1.2054455155 -1.7014850622
H -3.6071253804 1.9254321333 1.1695628489
H -2.4047588599 1.9897322231 2.4547757576
H -4.1143422689 2.2726797828 2.8323237483
H -3.3101860211 -0.0411990914 3.5172966987
H -2.9361851173 -0.3886153369 1.8362492722
H -5.7216272843 0.2416637641 2.9601172069
H -5.1211792969 -1.3678036733 2.5676064614
H -6.6107745532 -0.4918602117 0.7908106802
H -5.5460783017 0.9121454242 0.5557890829
H -3.4414891429 -0.8553392506 -2.9299522502
H -5.4272532471 -2.2841841433 -3.3588186376
H -3.9323705672 -3.2466788864 -3.3818895900
H -5.0081916742 -3.3087406761 -1.9626091109
H -1.0053065203 -2.8990845757 0.2289842021
H 0.7010103482 -1.5204182317 1.4221505762
H -2.5435083154 0.6673028669 -1.6323926302
H 4.0553301076 0.3875414497 -1.6713525156
H 5.0270265393 2.7776495436 1.7758839613
H 2.6708468996 2.4557442832 2.5535113734
H -0.8552401268 2.0071312840 -0.4411744130
