59
CONF256
C 6.1160557156 1.7611198841 4.1130287289
C 5.9402329903 3.2745387665 3.9613997769
C 4.4559006024 3.3930185497 3.6047218893
C 4.1724756686 2.2033528051 2.6502857418
C 5.3437844704 1.1987862951 2.9100915901
C 4.1475117543 2.6571047902 1.1915134777
C 3.8367609113 1.5431910487 0.2277164530
O 4.2483900706 1.5386181684 -0.9243517486
N 3.0264143572 0.5026132467 0.6928042621
C 2.4392393246 0.4784027314 1.9616990372
O 1.6499501352 -0.4080117768 2.2593255374
C 2.8107860991 1.5741374543 2.9267938621
C 2.6793725619 -0.5789029724 -0.2483993287
C 1.4244027409 -0.2549597698 -1.0530937551
C 1.0612798760 -1.4071674796 -1.9861333028
C -0.1558270379 -1.1183578479 -2.8627443524
N -1.3498288393 -0.7132233654 -2.1090181213
C -2.4144725594 -0.3180031212 -3.0389344156
C -3.6549610147 0.1423199740 -2.2795969681
N -4.1202760806 -0.9252917325 -1.3928646043
C -3.0688394844 -1.3373018782 -0.4624668532
C -1.8285520544 -1.7864422699 -1.2302035991
C -5.1225222042 -1.7778987327 -1.7642229236
N -5.8856144990 -1.4210688392 -2.8266924438
C -6.8927947477 -2.2361604496 -3.1340006976
C -7.1724469021 -3.4014965247 -2.4295520054
C -6.3248729007 -3.6786447990 -1.3631468265
N -5.3052644939 -2.8948563158 -1.0172284153
H 5.6479723594 1.4330607621 5.0495886818
H 7.1614850934 1.4388392249 4.1298337762
H 6.2079390363 3.8376318053 4.8606553949
H 6.5617131924 3.6420972249 3.1346865275
H 4.1833476689 4.3527003713 3.1542241405
H 3.8577758828 3.2724469689 4.5165158542
H 6.0023474811 1.1658597667 2.0339755409
H 4.9830571475 0.1791742901 3.0818756420
H 3.3698856028 3.4221924252 1.0506651552
H 5.0990078141 3.0976768568 0.8808578378
H 2.7596793683 1.1427858824 3.9312266593
H 2.0222695646 2.3386638061 2.8633471841
H 2.5297755472 -1.4864853721 0.3404304303
H 3.5366527932 -0.7237647461 -0.9092350103
H 0.5964744036 -0.0551116252 -0.3645494188
H 1.5880220679 0.6594578371 -1.6370501836
H 0.9086846689 -2.3224873646 -1.4008179892
H 1.9035189648 -1.6159543400 -2.6583295905
H -0.3674830841 -2.0075436542 -3.4897866088
H 0.0888554733 -0.2944739865 -3.5461155248
H -2.0483877523 0.5037199078 -3.6658772605
H -2.6978728380 -1.1550676157 -3.7099159570
H -4.4464651727 0.4203532327 -2.9737867366
H -3.4056789494 1.0114961593 -1.6577745292
H -3.4308935272 -2.1399009168 0.1780934362
H -1.0478313653 -2.0408575238 -0.5057289666
H -2.0685906782 -2.7039115409 -1.8064327964
H -7.5028048524 -1.9434736969 -3.9882497082
H -7.9937517143 -4.0540448477 -2.6974015137
H -6.4671786461 -4.5742283766 -0.7588486605
H -2.8155621754 -0.4719510170 0.1634627283
