45
CONF68
C 6.1075955257 -3.1564962167 -2.4317363646
C 5.2956284264 -2.0878930891 -2.4550349079
C 3.8757153143 -2.0878364358 -2.1402353735
C 3.1434386515 -0.9375353125 -2.1981646193
N 1.8338529745 -0.8906576900 -1.7441302862
C 1.1107145865 -1.9457059936 -1.0384515920
C -0.2207545063 -1.2584206070 -1.4745436111
C 0.6938784306 -0.1901263764 -2.1297984235
O 0.5297381415 0.8060221309 -2.7882445289
N -1.1752652541 -0.8570722159 -0.4910462400
C -0.8859576945 0.1053273141 0.4185929417
O 0.2246628705 0.6252991842 0.5009420414
C -2.0214132663 0.5060928769 1.3299843570
N -3.1881294486 0.0806285496 0.9697197821
O -4.1629197894 0.3167407775 1.9342821648
C -5.4447975981 0.4705887118 1.3279783715
C -5.7610774183 1.9208733429 0.9810221340
O -6.7706670417 2.1889164501 0.3599043887
O -4.9268432531 2.8636591968 1.4004403641
C -1.7372463905 1.3724240964 2.4711267384
C -0.6056892824 1.3245324331 3.2312071979
S -0.6575838077 2.5474230175 4.4630044464
C -2.2263610052 3.0727835247 3.8260698109
N -2.6456195622 2.3646295859 2.8081991776
N -2.9217995135 4.0793080414 4.4036881063
S 1.4682951190 -3.5670216797 -1.7974416881
C 3.2902275439 -3.3829780044 -1.6335495945
C 3.6883278158 0.3643678710 -2.6905042259
O 4.3443693612 0.5047920625 -3.7005612772
O 3.3653030369 1.3691191387 -1.8567297401
H 5.7722665956 -4.1598303802 -2.1921679749
H 7.1610699736 -3.0369344249 -2.6605247477
H 5.7298522520 -1.1264914246 -2.7089421044
H 1.3081955332 -1.9529769551 0.0375398902
H -0.7313228724 -1.8330476878 -2.2534581044
H -2.1098920590 -1.2393148250 -0.5195402959
H -5.5324340915 -0.1415167848 0.4246998533
H -6.1802253865 0.1343758608 2.0660854398
H -4.1286347439 2.5372691420 1.9333239429
H 0.2392498646 0.6587520325 3.1388753264
H -3.6961804236 4.4528643534 3.8734923736
H -2.4276337280 4.7426313616 4.9797634286
H 3.5773432005 -3.5397749185 -0.5866790393
H 3.6997561983 -4.2173463880 -2.2090954950
H 3.6989682132 2.1995569463 -2.2385013557
