44
CONF29
C 3.7689374441 -0.8728566305 -1.1627048286
C 2.9385725842 0.3359847153 -1.4349159943
N 1.8889398426 0.5648044094 -0.6324580115
C 1.1776040817 1.6749849777 -0.8918184489
N 1.4467094946 2.5236332310 -1.8915173574
C 2.5024529685 2.1857119688 -2.6291626057
N 3.2935396390 1.1174463541 -2.4552602796
O 2.8518035263 2.9561595386 -3.6545617709
C 2.0505108618 4.1365995704 -3.9133780517
N 0.0906017240 2.0023080403 -0.0958883209
C -0.6299035092 3.2468862040 -0.4268743731
C -0.4142247721 1.2561376434 1.0019074809
O -1.4071688850 1.6217361057 1.6112098179
N 0.2801315923 0.1165152538 1.3203864716
S -0.2647181679 -0.9769504362 2.4956347138
O 0.6161533220 -2.1397250518 2.3130045863
O -0.3190790743 -0.2971276451 3.7921958717
C -1.9429944178 -1.4471706903 2.0478520367
C -2.9796013986 -0.8840840234 2.7853143553
C -4.2843281989 -1.3102054835 2.5634607531
C -4.5404134127 -2.3109295370 1.6314205388
C -3.4964438824 -2.8830643767 0.9128749222
C -2.1837704213 -2.4475917133 1.0986001205
C -1.1312239651 -3.1075062303 0.2640663902
O -0.9644878851 -4.3074565859 0.2277690655
O -0.4710398547 -2.2191305493 -0.4884729833
C 0.5673806085 -2.7735017407 -1.3387960457
H 4.8075476895 -0.5704135622 -0.9971370687
H 3.3987319394 -1.4141370230 -0.2920983721
H 3.7606216124 -1.5302918735 -2.0380411361
H 2.0828415037 4.8114508756 -3.0550778989
H 1.0176248496 3.8538734250 -4.1282893641
H 2.5126381423 4.5992060824 -4.7842883096
H 0.0572890413 4.0939463701 -0.3845705927
H -1.4251258860 3.3749618920 0.3020812717
H -1.0527505313 3.1783253417 -1.4315226850
H 1.0534581771 -0.1668363363 0.6832313256
H -2.7607280942 -0.1278794798 3.5287404968
H -5.0955750366 -0.8675273159 3.1310514944
H -5.5559958078 -2.6543623014 1.4655750627
H -3.6902977309 -3.6693541931 0.1907928833
H 1.3563522939 -3.2078786204 -0.7199831764
H 0.1445004036 -3.5347261127 -1.9976282017
H 0.9449274992 -1.9299638995 -1.9142465864
