55
CONF6
C 5.1515549259 2.0957494182 0.7455153753
C 4.7289588392 0.7173443038 1.2551009790
C 5.7073908142 -0.3562021153 0.7423217062
C 3.3058054288 0.3337651546 0.9191727054
C 2.6127113597 0.8581070360 -0.1100167168
C 1.2318906918 0.5171417940 -0.4215192886
C 0.6123675653 1.0572244418 -1.4882801965
C -0.8134487848 0.7867921461 -1.8411634038
C -1.5689760443 0.1325149037 -0.6835063133
C -0.7646098987 -1.0589403037 -0.0890619589
C 0.5203506219 -0.4284056248 0.5279312537
C 1.5328679113 -1.4418090941 1.0795522613
C 2.6761344533 -0.7212131107 1.7905601035
C -1.5859280933 -1.7118342728 1.0413460495
C -3.0194540225 -2.0509728758 0.6393499158
C -3.7612127104 -0.7926699939 0.1940198314
C -3.0751406422 -0.1252232959 -1.0232991782
C -3.3413344495 -0.9554295449 -2.2861769649
C -3.7283229679 1.2448793520 -1.2498032815
O -4.3061882721 1.5898134784 -2.2623672367
O -3.6019920242 2.0563461740 -0.1806978110
C -4.1845667756 3.3738361950 -0.3198657835
C -0.3662036771 -2.1116676622 -1.1350717967
H 4.4577891043 2.8748180888 1.0766162380
H 6.1512155290 2.3410833412 1.1178840906
H 5.1935855322 2.1183430956 -0.3487978477
H 4.7984837988 0.7249403361 2.3540580157
H 5.6997199580 -0.3727824210 -0.3532160541
H 6.7270205555 -0.1359154976 1.0760561588
H 5.4417347078 -1.3552256562 1.1004184037
H 3.0749673459 1.6066490778 -0.7503388922
H 1.1720130542 1.7297683612 -2.1380538945
H -1.3063414682 1.7291629208 -2.1227328316
H -0.8576773009 0.1586867960 -2.7432592681
H -1.5936667285 0.8703664476 0.1296605678
H 0.1885876019 0.1775916174 1.3882915570
H 1.0430514120 -2.1394367865 1.7660547791
H 1.9544212680 -2.0286710259 0.2547700671
H 3.4392209438 -1.4430414043 2.1068666841
H 2.3096779113 -0.2497069876 2.7160693586
H -1.6251533704 -1.0147431304 1.8912274169
H -1.0741651966 -2.6149495103 1.3918750376
H -3.5439680878 -2.4921541977 1.4948709649
H -3.0289938811 -2.8099370533 -0.1514323223
H -4.8030090955 -1.0208826562 -0.0627305611
H -3.7769080832 -0.0856828939 1.0311461294
H -4.4142086052 -0.9588829736 -2.4960668467
H -3.0258737178 -1.9898212315 -2.1592470804
H -2.8360869193 -0.5461172005 -3.1632504140
H -3.9806498131 3.8808800024 0.6226265011
H -5.2611585014 3.2958229150 -0.4898831945
H -3.7185846865 3.9068372271 -1.1523424814
H 0.3145967592 -1.6942190279 -1.8836518492
H -1.2274976540 -2.5240460108 -1.6600734528
H 0.1452010822 -2.9478803825 -0.6493215197
