19
CONF8
C -2.6418831784 1.1986113703 -0.3254730580
C -1.6614713991 0.2700254936 0.3232458888
C -1.8288640146 -0.2639333397 1.5369297174
C -0.4569011590 -0.0308331237 -0.5013125438
O -0.2865478593 0.4162313398 -1.6158012151
O 0.4239975402 -0.8559937139 0.1205042982
C 1.6303555751 -1.1751313868 -0.6225309954
C 2.6842063800 -0.1136120075 -0.3802594829
O 3.0676688210 -0.0401021175 0.9901409135
H -2.9960138785 0.7824841789 -1.2736735411
H -3.4965287763 1.3779932781 0.3294579428
H -2.1667379379 2.1542218305 -0.5678589211
H -1.0976238114 -0.9380408452 1.9658745735
H -2.7134230614 -0.0364789993 2.1238866816
H 1.3949544254 -1.2602785720 -1.6877978639
H 1.9555467420 -2.1373183836 -0.2194427022
H 3.5867074615 -0.3799575962 -0.9410987423
H 2.3262388569 0.8573281657 -0.7524376581
H 2.2763201838 0.1747841268 1.4976466129
