33
CONF11
C -5.0925484676 1.1695543939 0.2936580954
C -3.6685031900 0.6491109726 0.4482249581
C -3.7158682314 -0.7533692005 1.0530176038
O -3.7452757920 -1.7854150923 0.4375799791
O -3.7771253588 -0.6773792319 2.4103283988
O -3.0953291930 0.6224575443 -0.8449366006
C -1.7536163943 0.3487732564 -0.9493481479
C -0.9028789171 0.1064146773 0.1257464546
C 0.4506841588 -0.1479157866 -0.1010298584
C 0.9419828668 -0.1503280129 -1.3967359612
C 0.0956384197 0.0911078070 -2.4759154486
C -1.2470097552 0.3351141897 -2.2514100275
O 2.2681798890 -0.4241927281 -1.7119112830
C 3.1931046669 -0.3792866758 -0.7012589171
C 3.6436005949 0.8328858343 -0.1674449064
C 4.6307588356 0.8543362545 0.8111939345
C 5.1699156975 -0.3511600996 1.2439191607
C 4.7479790227 -1.5672752820 0.7205261745
C 3.7543303716 -1.5690689862 -0.2502445292
Cl 6.4165082103 -0.3264865798 2.4735197893
Cl 2.9799576833 2.3351559557 -0.7436470944
H -5.6579120634 0.5083820556 -0.3679710268
H -5.0662975837 2.1709492327 -0.1416595700
H -5.5854454222 1.2156878329 1.2675828847
H -3.0973032314 1.3093210669 1.1166338304
H -3.8709948157 -1.5865772962 2.7371476679
H -1.2616781230 0.1007986195 1.1481759983
H 1.1084762496 -0.3422664020 0.7388081268
H 0.5027949380 0.0847283874 -3.4807340085
H -1.9244536969 0.5229950409 -3.0768723595
H 4.9767557461 1.7967625530 1.2166326902
H 5.1854326721 -2.4951629990 1.0681794090
H 3.3961402232 -2.4986510850 -0.6790341094
