42
CONF21
C -2.9902441771 -1.7511835675 1.4917957720
C -2.4318095946 -0.8291263816 0.4635986142
C -3.1101307268 -0.1648091715 -0.5129316139
C -2.1726917856 0.6621487958 -1.2702165563
C -0.8684341723 0.4449001994 -0.7638742095
C -0.9944412470 -0.5300232478 0.3366884261
C -0.0629133238 -1.0860737801 1.1494574813
C 1.3907956690 -1.0432801865 1.0440549657
C 2.1705358440 -0.9692718470 2.2092242133
C 3.5576892894 -0.9629894081 2.1455182319
C 4.1736487293 -1.0538531648 0.9051090999
C 3.4293754135 -1.1894850926 -0.2640783809
C 2.0447854886 -1.1754407875 -0.1923169618
S 5.9980719286 -1.1131320120 0.8555870738
O 6.4756105585 -1.1478373883 2.2930644611
C 6.2152610258 0.6332510133 0.2869315852
C 0.1878359081 1.2062175265 -1.2459314931
C -0.0394236238 2.1365123604 -2.2631800960
C -1.3236616359 2.2913119190 -2.7602373779
C -2.4181338061 1.5823887535 -2.2804235035
F -1.5265995622 3.1947426128 -3.7452478146
C -4.5769628123 -0.1970361781 -0.8093331024
C -5.2563224187 1.0584494040 -0.2976203994
O -5.6346726486 1.9813061084 -0.9760489201
O -5.3747158490 1.0320051836 1.0551452660
H -4.0736441082 -1.8450879580 1.4006532549
H -2.5520887201 -2.7529469826 1.4154634632
H -2.7835419093 -1.3802744209 2.5028247659
H -0.4373311636 -1.6569137960 1.9981873841
H 1.6761481039 -0.9035972123 3.1742259751
H 4.1734695963 -0.9037771928 3.0381090687
H 3.9234339665 -1.3236954982 -1.2229123065
H 1.4530270912 -1.3021889358 -1.0925910486
H 5.7584695447 1.2882311188 1.0328720817
H 7.2915600937 0.8097024148 0.2235457603
H 5.7470789160 0.7630878212 -0.6925852978
H 1.1876700078 1.1017065571 -0.8423194053
H 0.7637718794 2.7438613013 -2.6636689719
H -3.4122457105 1.7843049418 -2.6641234963
H -5.0471476334 -1.0660965194 -0.3418795977
H -4.7491451771 -0.2393356167 -1.8880350156
H -5.7819375551 1.8733288119 1.3155503172
