53
CONF124
C -0.6668344401 4.9754457955 -0.5094192846
C 0.5135383292 4.0766856231 -0.7938066153
O 0.1560877407 2.7432227469 -0.3374143292
C 1.0656040212 1.7673461900 -0.5702614171
O 2.1494196638 1.9951720447 -1.0986109382
C 0.5812441839 0.4629707412 -0.1303420057
C 1.4499272366 -0.5753841928 0.0002841016
N 1.0050201629 -1.7915129654 0.4387717781
C -0.2613591486 -2.0316477263 0.9107360796
C -1.2010003801 -1.0453709030 0.8293742043
C -0.9044550610 0.2893614624 0.1544433713
C -1.7595309061 0.5140308935 -1.0971918376
C -2.6656891925 1.5827291195 -1.1060534804
C -3.4723490833 1.8634023843 -2.1998924918
C -3.3946490158 1.0643408751 -3.3384496871
C -2.5096428310 -0.0058568685 -3.3674173915
C -1.7102887315 -0.2638766750 -2.2555982418
Cl -0.6136179835 -1.6431702534 -2.3806550374
C -2.5290967476 -1.2535128077 1.3964422217
O -3.0090615560 -2.3119812370 1.7850133136
O -3.2282567870 -0.0885207504 1.4554931704
C -4.5712125870 -0.1923145110 1.9718415328
C -0.4454198553 -3.3971579521 1.4966512375
C 2.9390723096 -0.5542244336 -0.3037522652
O 3.6126513111 -1.6579082922 0.2887118214
C 3.9493454597 -1.4212981701 1.6696090754
C 4.5664527224 -2.6919261454 2.2262899006
N 5.8178437965 -3.1176125032 1.5830619937
H -0.4311544950 5.9933226552 -0.8333255595
H -0.8933887275 4.9973321975 0.5604917742
H -1.5542377107 4.6361117700 -1.0514573818
H 1.4128910886 4.4014772773 -0.2603336735
H 0.7437083371 4.0297713227 -1.8631208569
H 1.7111372250 -2.5107719415 0.5381506237
H -1.2065911375 1.0873588591 0.8394973256
H -2.7250865414 2.2044605539 -0.2182299532
H -4.1596564592 2.7025471036 -2.1647626323
H -4.0175798103 1.2681377341 -4.2033419734
H -2.4342219255 -0.6398826757 -4.2439098103
H -5.1654048743 -0.8734603852 1.3569116147
H -4.5591666084 -0.5494713326 3.0049911118
H -4.9782079087 0.8176792267 1.9233284351
H -0.8781953649 -3.3369299081 2.4965904973
H -1.1372989986 -3.9853159846 0.8876641758
H 0.5119483844 -3.9209695085 1.5506254362
H 3.0787196466 -0.6359223974 -1.3878968875
H 3.3771671490 0.3954884403 0.0167223185
H 4.6576685462 -0.5805457583 1.7273276158
H 3.0458252680 -1.1557016107 2.2414577130
H 4.7494966424 -2.5353802473 3.2961855392
H 3.8341568337 -3.5054470520 2.1422502710
H 6.5017136159 -2.3700684239 1.6646390642
H 5.6520151147 -3.2252497999 0.5868745544
