15
CONF3
C -3.2697764870 -0.8463720250 -1.0854007812
C -2.4042387120 -0.2362407050 -0.5062674693
C -1.3403482693 0.4770718022 0.1804708796
C 0.0353373681 -0.1782732128 -0.0267118649
C 1.1254409452 0.6107593217 0.7176108412
C 2.4459248217 0.0282206233 0.5473060443
C 3.5309102269 -0.4761333712 0.3884526915
H -4.0407743693 -1.3792494446 -1.5933291292
H -1.5690817006 0.5208579642 1.2530379596
H -1.3111347052 1.5141102074 -0.1776168254
H 0.2698979751 -0.2117946406 -1.0951170024
H 0.0113268406 -1.2088791520 0.3404640772
H 0.8837236693 0.6518887956 1.7874589396
H 1.1387292225 1.6476517074 0.3581392322
H 4.4940635815 -0.9136179607 0.2568124148
