49
CONF29
C -5.6020456411 -1.2132391590 -1.8498555292
C -4.2435969505 -1.6221811697 -1.2727935206
C -3.3525934062 -2.2106350849 -2.3707890083
C -3.5598770384 -0.4222604456 -0.6153466305
C -4.2602772761 0.2071136649 0.6258064384
C -4.1296605591 -0.9408197984 1.6707562977
C -2.7388363959 -1.5573177536 1.3485235432
C -2.2306980761 -0.6940101154 0.1529149945
C -1.9737426006 0.6833546649 0.7089534682
C -3.2308705597 1.2412736680 1.0025162002
C -3.3579157600 2.5191371110 1.5207994926
C -2.1931164692 3.2678324121 1.7250925204
C -0.9436751250 2.7318959656 1.4343857169
C -0.8206675554 1.4266673196 0.9310103075
N 0.4704564021 0.9557986613 0.5844734085
C 1.0007882090 -0.2384298624 0.9796765993
O 0.4116144917 -1.0313269036 1.7163041852
C 2.3586294754 -0.5378044963 0.4795251041
C 3.1805687099 -1.4824871950 1.0791622570
N 4.3234409779 -1.5282423875 0.3680870638
N 4.3133963447 -0.6857814170 -0.6765707574
C 3.1276791130 -0.0732775263 -0.6193304473
C 2.8250879164 0.9009062916 -1.6984570019
F 1.6442184177 0.5856542697 -2.3347523297
F 2.6374543900 2.1768449293 -1.1738978968
C 5.4948518095 -2.3564133642 0.6241803657
H -5.4799217729 -0.4136839934 -2.5909703859
H -6.2802667069 -0.8516248909 -1.0708344951
H -6.0824588573 -2.0624127250 -2.3471153380
H -4.4170127451 -2.4024299759 -0.5215150051
H -3.8524825954 -3.0485027271 -2.8680110046
H -3.1302983763 -1.4513329391 -3.1305975709
H -2.4024076998 -2.5758171751 -1.9692239585
H -3.3984079706 0.3464236943 -1.3845604258
H -5.2731962736 0.5904544683 0.4926620668
H -4.9357009124 -1.6696356960 1.5407766768
H -4.1922458379 -0.5536455650 2.6913017766
H -2.8239868147 -2.6060661904 1.0475589515
H -4.3341398048 2.9424217300 1.7385508027
H -2.2594522591 4.2812951311 2.1087171920
H 3.0185502648 -2.0998578914 1.9503636829
H 3.6239467018 0.9585723611 -2.4427875074
H 5.7067247243 -2.9712375241 -0.2535618718
H 5.2817016419 -2.9964509685 1.4806061644
H 6.3558745557 -1.7202707231 0.8436437175
H -2.0433098095 -1.5033840874 2.1862421524
H -1.4095257071 -1.1361497183 -0.4109243750
H 1.1024778871 1.6412290156 0.1942817755
H -0.0462222275 3.3236816533 1.5909525844
