53
CONF3
C 5.8548066510 0.8660172357 -0.3540792426
C 4.5811078739 0.4707792390 0.3639029669
O 4.6073918652 0.0416261715 1.5007808847
C 3.2892238399 0.6871630883 -0.3988682921
C 3.3202541367 0.2674167641 -1.9004297440
C 1.8420367162 -0.0395763487 -2.2723166961
C 1.0474789843 0.3564369359 -1.0205759610
C 2.0024086002 0.0390211951 0.1502207710
C 1.4264312351 0.6751779663 1.4140405346
C -0.0052821451 0.1820186652 1.6738293770
C -0.9466527484 0.3886136956 0.4730329992
C -0.3610605687 -0.1938827778 -0.8330192181
C -1.2601983006 0.1584731855 -2.0152034807
C -2.6919272404 -0.3285752845 -1.7819813215
C -3.2543903104 0.1656826087 -0.4821727292
C -4.4622196657 0.7641802865 -0.4468213910
C -5.1656901149 1.1201271998 0.7868335512
O -6.2571460441 1.6713398494 0.7732117466
C -4.4892989925 0.6908537364 2.0702570644
C -2.9702098803 0.7460040909 1.9432120295
C -2.4145627690 -0.0786497319 0.7629717133
C -2.4799536631 -1.5843979370 1.1030653009
C 2.2131769405 -1.4725021000 0.3430866773
H 6.6721846499 0.9534062895 0.3626066645
H 6.1088481321 0.0933959795 -1.0893240443
H 5.7259154687 1.8007973254 -0.9089252380
H 3.1462453310 1.7816370039 -0.3651936403
H 3.7460982889 1.0554371260 -2.5271903761
H 3.9474779168 -0.6187178992 -2.0387048480
H 1.7080152114 -1.1053461296 -2.4898477966
H 1.5213753334 0.5117844269 -3.1603992014
H 0.9490565041 1.4559903175 -1.0355915063
H 1.4139598268 1.7675214589 1.2865471346
H 2.0613914083 0.4587485651 2.2791431952
H 0.0245637609 -0.8790399549 1.9456550962
H -0.3994145810 0.7109891356 2.5468666028
H -1.0162232078 1.4771595004 0.3030366922
H -0.3043439905 -1.2892945513 -0.7587573512
H -1.2630958839 1.2493337737 -2.1522674820
H -0.8683449120 -0.2810897985 -2.9393471974
H -2.6854147348 -1.4287017419 -1.7598181186
H -3.3489819135 -0.0346654126 -2.6062423589
H -5.0123830319 0.9476395379 -1.3671626670
H -4.8525040510 1.3212777087 2.8864584241
H -4.8264234234 -0.3327558829 2.2854250520
H -2.6716618182 1.7939096322 1.8034031929
H -2.5118812904 0.4061818623 2.8770043259
H -1.9966321408 -2.2001243775 0.3403796707
H -1.9916544037 -1.7868949444 2.0601092674
H -3.5197642969 -1.9154412424 1.1795814211
H 2.8628634255 -1.6461410885 1.2031783578
H 2.6838974535 -1.9329185220 -0.5307205429
H 1.2711059069 -1.9971804443 0.5171188633
