82
CONF3
C -3.8113267624 3.7465192114 -0.3534938968
C -4.0323191153 2.6729917991 -1.3832375517
C -4.1144297207 2.9654244748 -2.6862165924
C -4.2206378531 1.2591474788 -0.8866844616
C -5.6074479281 1.1016713212 -0.1617926517
C -5.3168727078 0.4542708232 1.2091863317
C -3.9906751638 -0.2891985064 0.9963996349
C -3.2085245894 0.7594028707 0.1706001555
C -1.8426788273 0.2417235760 -0.2776008112
C -1.0821428231 1.2088699401 -1.1885265127
C 0.2925840890 0.6727354366 -1.6097042038
C 1.1391090344 0.1493097874 -0.4374404831
C 2.6033140727 -0.2567999697 -0.8465487966
C 3.2966664238 1.0024500013 -1.4175195414
C 4.8132057131 0.8597205018 -1.5394829990
C 5.4580960516 0.4993468638 -0.2102180190
C 4.8880783006 -0.7980206292 0.4130217281
C 3.3361922417 -0.6385565603 0.4760030774
C 2.6217016836 -1.7974040302 1.1737209772
C 1.2014774919 -1.3995516060 1.5771100645
C 0.3351957700 -0.8915825005 0.4057108400
C -0.9719878572 -0.1569382627 0.9581291556
C -1.7650222992 -1.0811669841 1.9232810410
C -3.1876030459 -0.5991272628 2.2593769599
C -0.6162618514 1.1046060702 1.7810651275
C -0.0476711067 -2.1296906718 -0.4375300287
C 5.3659695870 -2.0408291074 -0.3535141813
C 5.4400565322 -0.8953825435 1.8481947673
O 6.8938831553 0.4677250953 -0.3355449438
C 2.6457908146 -1.3569567029 -1.9276349363
C -4.2546738219 -1.5704200788 0.1929445622
O -5.0830905701 -2.4442629250 0.9849964178
H -4.5088862248 3.6442379300 0.4861577402
H -2.8017188369 3.6779886392 0.0691928320
H -3.9297373537 4.7415829173 -0.7894631211
H -4.0329385049 3.9885423319 -3.0438458302
H -4.2569201738 2.1843458658 -3.4290257134
H -4.1919413277 0.5958705558 -1.7596237075
H -6.1109281741 2.0667634042 -0.0522657990
H -6.2659874628 0.4712889591 -0.7670842594
H -5.1669512128 1.2304532679 1.9701780827
H -6.1268214005 -0.1966514827 1.5502304772
H -3.0453892028 1.5958681561 0.8628172932
H -2.0190707291 -0.6677842864 -0.8639509671
H -1.6783923568 1.3986103587 -2.0873908052
H -0.9695970667 2.1806743388 -0.6927691634
H 0.8289575855 1.4726774282 -2.1299774459
H 0.1403758423 -0.1194239366 -2.3514548530
H 1.3053026323 1.0000406980 0.2352972330
H 3.0786149824 1.8560498890 -0.7593747848
H 2.8846937594 1.2456129343 -2.4028070130
H 5.0775185405 0.1029964218 -2.2901906480
H 5.2433659826 1.8052091627 -1.8909851537
H 5.2631358707 1.3129197868 0.5036692778
H 3.1900378857 0.2418877325 1.1267522337
H 3.1624030547 -2.0858080551 2.0804597468
H 2.6128734684 -2.6880199980 0.5356682038
H 1.2914662372 -0.6256366405 2.3470743915
H 0.7028274510 -2.2551668258 2.0494537439
H -1.8346224853 -2.0934299882 1.5160612450
H -1.2001544364 -1.1734451278 2.8584385990
H -3.6909041599 -1.3618920991 2.8644853160
H -3.1489889952 0.3100765089 2.8721740725
H 0.1198310890 0.8743594787 2.5549230984
H -1.4993873514 1.4871369115 2.2980874449
H -0.2206744615 1.9257155849 1.1831059411
H 0.8053732980 -2.8021414586 -0.5335699192
H -0.3790072794 -1.8860684406 -1.4479942912
H -0.8456011142 -2.7032532614 0.0407464946
H 6.4357708617 -2.1996977707 -0.1783728861
H 4.8434601672 -2.9336038324 0.0031226716
H 5.2082768867 -1.9708130631 -1.4312993346
H 5.2368582247 -1.8722610044 2.2955866495
H 5.0005365256 -0.1239880912 2.4914350892
H 6.5251498060 -0.7572728585 1.8353980859
H 7.1076239758 -0.1413168974 -1.0544257373
H 3.5511611235 -1.2787918597 -2.5330896221
H 2.6236336301 -2.3665763751 -1.5149289936
H 1.8010634070 -1.2620262338 -2.6148173176
H -4.7612367762 -1.3321215740 -0.7519813206
H -3.3164893884 -2.0814180990 -0.0528065534
H -5.2159231494 -3.2523268543 0.4759292324
