45
CONF13
C -0.5554789579 2.2330581119 -1.5225922960
C -1.5066210003 1.7385795027 -0.4813864378
C -1.8370026473 0.4547057116 -0.2994170753
C -2.7760972758 0.0063652309 0.7397324679
C -2.4732471055 -1.2689179851 1.5896790322
C -3.6371173622 -1.2268604511 0.6247992156
C -3.6494885390 -2.0435469843 -0.6486730226
C -4.9964612724 -1.1481345552 1.2907859081
C -1.1893840025 -1.9366578713 1.3330630455
O -0.8067193703 -2.4588855257 0.3043046955
O -0.3901872616 -1.8320055380 2.4362725040
C 1.0001100306 -2.1962922534 2.2270665499
C 1.6525855584 -1.2169688471 1.2915127919
C 2.1611950042 -1.5876104998 0.0513767227
C 2.6725112001 -0.6471056923 -0.8308596470
C 2.6997533472 0.7090162745 -0.5267127332
C 2.2106911640 1.0753959958 0.7218880129
C 1.7038931768 0.1370416795 1.6075537870
F 1.2371057402 0.5583669527 2.7964492399
F 2.2219107041 2.3681361360 1.0937270924
C 3.2775386024 1.7087231322 -1.4828160842
O 4.6974755279 1.6984196840 -1.3208354065
C 5.3187654456 2.6270613113 -2.2128501472
F 3.1415050695 -1.0691595482 -2.0190264192
F 2.1577071032 -2.8775633290 -0.3214374222
H -1.0559356939 2.9137321000 -2.2226072048
H -0.1207469357 1.4064919182 -2.0928968880
H 0.2603152125 2.8065014972 -1.0650752749
H -1.9561090461 2.4936758592 0.1654523681
H -1.3838644806 -0.3002890296 -0.9386248153
H -3.1893773408 0.8122390546 1.3427485042
H -2.7041976942 -1.1540221490 2.6438051630
H -4.3925529370 -1.6207288295 -1.3339112631
H -3.9446880734 -3.0747080634 -0.4261968469
H -2.6840625558 -2.0702596669 -1.1490515417
H -5.3528293258 -2.1522065412 1.5467736456
H -5.7221758874 -0.6920977186 0.6085118653
H -4.9618364875 -0.5506090153 2.2064469955
H 1.4458853712 -2.1454426417 3.2216141414
H 1.0729377930 -3.2126673657 1.8381284304
H 2.8738325420 2.7082309799 -1.2723624154
H 3.0080598991 1.4378943183 -2.5139926225
H 6.3946121542 2.5641370190 -2.0382215471
H 5.1023516419 2.3724346467 -3.2600641883
H 4.9754397800 3.6525326996 -2.0154137693
