45
CONF70
C -3.5541192075 3.6553053787 -1.5922051359
O -3.1287508926 2.3351854288 -1.1729569451
C -2.5860900170 1.5881723417 -2.1511098758
O -2.4480079447 1.9417048806 -3.3123610840
N -2.1598260498 0.3695938084 -1.6853279529
C -1.7381983169 -0.6956219620 -2.5256792608
C -2.5657980119 -1.1188715518 -3.5667376031
C -2.1709694672 -2.1723336029 -4.3820313688
C -0.9586877569 -2.8184793490 -4.1477873555
C -0.1417891368 -2.3971982167 -3.1044435943
C -0.5105812749 -1.3293843326 -2.2840284159
C 0.4006129647 -0.8999609030 -1.1769938090
O 0.1737506076 -1.8007657105 -0.0562185737
C 0.8374663101 -1.4999800290 1.0731630096
N 1.6795251542 -0.4775648651 1.1782142508
N 2.1259271401 -0.5452871315 2.4688511054
C 1.5635834766 -1.5895654854 3.1450989818
C 0.7205066397 -2.2370419112 2.2752298488
C 3.0394783413 0.4127812437 2.9505257170
C 3.1956471601 1.6259253967 2.2744744873
C 4.0922845220 2.5752773274 2.7482020532
C 4.8208194132 2.3079424052 3.9005229463
C 4.6778128760 1.1056614233 4.5825076802
C 3.7906982273 0.1520611213 4.0999851212
Cl 5.9527921021 3.5123990378 4.5055780921
O -2.2968613672 0.0738519861 -0.3221946758
C -3.5270210306 -0.6481004112 -0.0813133804
H -3.9538341922 4.1212720759 -0.6924662179
H -2.7033637402 4.2247603144 -1.9732699861
H -4.3274487427 3.5786671136 -2.3599513081
H -3.5137949562 -0.6176846334 -3.7294074951
H -2.8169173895 -2.4963441442 -5.1916071811
H -0.6502171339 -3.6457868565 -4.7785084334
H 0.8093030323 -2.8904834427 -2.9246837603
H 0.2043839140 0.1286117384 -0.8618647051
H 1.4485705367 -0.9860278840 -1.4854771886
H 1.7757223245 -1.7810461235 4.1857941957
H 0.1030502113 -3.1001694251 2.4675321814
H 2.6133272121 1.8286977385 1.3847716927
H 4.2121524939 3.5172289042 2.2252070014
H 5.2613760462 0.9018747194 5.4728800174
H 3.7074909858 -0.7951135216 4.6194509864
H -3.5286740767 -1.5996884650 -0.6247336948
H -3.5346584173 -0.8342502325 0.9943359460
H -4.3906724948 -0.0393633843 -0.3689667209
