41
CONF19
C 0.4349194073 -2.4688989795 -2.5705449287
C -0.1074068553 -1.7401581182 -1.3942231351
C -1.4079795548 -1.5947304366 -0.9967947117
C -1.4339867544 -0.7383659008 0.1590421967
C -0.1001916553 -0.3713057390 0.4426624484
N 0.7150960006 -0.9777635746 -0.5388897772
C 2.1196889617 -0.9792407162 -0.5943268946
O 2.7417756396 -1.9451170374 -0.9998297715
C 2.8090008966 0.2782188882 -0.2018402958
C 2.2684678623 1.5358344926 -0.4844739351
C 2.9862775574 2.6893345475 -0.2013826817
C 4.2433117019 2.5727271974 0.3839423087
C 4.8034186851 1.3306031410 0.6695384358
C 4.0851403537 0.1855754490 0.3587582405
Cl 5.1456403398 4.0222627470 0.7627046003
C 0.2104761696 0.3631882789 1.5770488572
C -0.8339686068 0.7929785528 2.3942242806
C -2.1665161849 0.4742913843 2.0877948952
C -2.4751057116 -0.3017488025 0.9722300522
O -3.2359654777 0.8732404859 2.8399366339
C -2.9759381086 1.6558626226 3.9985407788
C -2.6261583474 -2.1832077788 -1.6389981394
C -3.3720216531 -1.1274299581 -2.4274423805
O -4.3651760895 -0.5461515886 -2.0655260634
O -2.7580965126 -0.8770734143 -3.6155730388
H 0.9842291823 -3.3669338557 -2.2756769649
H 1.1321329216 -1.8442679119 -3.1368022338
H -0.3849526157 -2.7450776506 -3.2358500003
H 1.2837771637 1.6137114141 -0.9329128748
H 2.5797175174 3.6674750162 -0.4292599750
H 5.7870162081 1.2675184271 1.1196635370
H 4.5061991419 -0.7962458024 0.5463386067
H 1.2296816637 0.6118137678 1.8435196336
H -0.5914919661 1.3743676907 3.2740885629
H -3.5096097410 -0.5469839658 0.7585865415
H -3.9510213824 1.8655168178 4.4405419317
H -2.4834444391 2.6032357213 3.7414690460
H -2.3596970924 1.1078701329 4.7238917207
H -3.3100945534 -2.5609507251 -0.8743554184
H -2.3538000203 -3.0056446354 -2.3050581571
H -3.2633443591 -0.1683296864 -4.0441214436
