22
CONF469
C 2.0626179401 -1.3144188490 -0.0662196458
C 1.0812725017 -0.1506169454 -0.1383931122
C -0.3627892614 -0.6247917966 -0.1145504644
C -1.3679580236 0.5039831771 -0.3380413760
C -1.2729972310 1.6468769584 0.6638416147
O -1.4105581622 1.2014077522 2.0159687385
O -2.6620696589 -0.1322983189 -0.2297296082
O -0.5381442690 -1.6325821138 -1.1195646072
O 1.3107294383 0.6246173363 -1.3205919239
O 3.4149748737 -0.8326648347 -0.1013689078
H 1.9477740265 -1.9555016516 -0.9434905171
H 1.8724860125 -1.9084613247 0.8386439836
H 1.2340410123 0.4771638522 0.7563673551
H -0.5462638862 -1.0560700159 0.8824071958
H -1.2292253571 0.9072013370 -1.3501563267
H -0.3000275343 2.1417530170 0.5873237908
H -2.0480941793 2.3886092076 0.4165786908
H -2.2432911409 0.7117442960 2.0620632570
H -3.3090428962 0.4256809367 -0.6795301006
H -1.4910286407 -1.7908096297 -1.1741851419
H 2.2694054787 0.7446729687 -1.3795114102
H 3.5881897613 -0.3754951685 0.7321385263
