43
CONF24
C -1.8850461183 -0.7714636540 2.0281395769
Si -1.9514775241 1.0087121571 1.4538730274
C -3.6758148761 1.7091712680 1.4836111692
O -1.0398428798 1.9725177767 2.4254113011
O -1.3633593675 1.0922229543 -0.0882009453
Si -1.2749331158 0.4144270067 -1.5761722266
C -1.1798846086 1.7818534354 -2.8327647789
C -2.7321069244 -0.7188008098 -1.8659549972
O 0.1161576923 -0.4605779000 -1.7068577397
Si 1.0826731861 -1.5067629082 -0.8931301467
C 0.1761200889 -3.0950544207 -0.5392749457
C 2.6049190715 -1.7747862980 -1.9361107332
O 1.5189335736 -0.8578641455 0.5597759503
Si 2.3100412686 0.4464443830 1.1744785903
C 4.0934500170 -0.0295288408 1.4430695754
C 2.0870412290 1.9589057419 0.1215891331
O 1.6025179282 0.8305306119 2.6403670913
H -2.2248009440 -0.8566378134 3.0658291143
H -0.8570903202 -1.1474549186 1.9742526562
H -2.5181026443 -1.4231108956 1.4158258199
H -4.3478475267 1.1372710461 0.8351118438
H -4.0896443750 1.6965403192 2.4969143714
H -3.6693710893 2.7471880791 1.1354742302
H -0.1276354663 1.6819962784 2.5879877130
H -2.0835932277 2.3994935477 -2.8152977416
H -0.3250872045 2.4314139147 -2.6167608046
H -1.0556645774 1.3843875461 -3.8451217078
H -3.6790211115 -0.1743087083 -1.7839571040
H -2.7511951231 -1.5388568200 -1.1402276249
H -2.6860585344 -1.1631515197 -2.8658895969
H -0.1845976015 -3.5531432699 -1.4661525283
H 0.8273381910 -3.8166884606 -0.0350475581
H -0.6881062621 -2.9176418497 0.1089960180
H 2.3459755423 -2.2261195021 -2.8994670044
H 3.1085408075 -0.8241128090 -2.1433781016
H 3.3194836726 -2.4349473109 -1.4334253296
H 4.1723567094 -0.9193084236 2.0776471125
H 4.5780242482 -0.2659290002 0.4892655042
H 4.6577643403 0.7793828374 1.9178416879
H 2.4102888603 1.7717431203 -0.9080759896
H 1.0326586922 2.2530294918 0.0965149040
H 2.6692843496 2.7988190663 0.5141897458
H 1.6767118802 0.1801998606 3.3451009714
