28
CONF62
O -2.1302460824 0.9775950787 2.0307964207
C -2.8648495855 1.0184583863 0.8066663703
C -2.2025319617 0.2327682917 -0.3048554181
O -0.9435779468 0.8762314070 -0.6045095526
C -0.0196689534 -0.0845749072 -1.0973499730
C -0.5960181902 -1.4807761145 -0.8062181994
C -1.8558733467 -1.2308062305 0.0196474139
O -2.8885916173 -2.1326828503 -0.3842955829
N 1.3062545382 0.1918100599 -0.5092668832
C 2.3486344694 0.5494050649 -1.3278615418
C 3.5929857285 0.8098253937 -0.8705647324
C 3.8723171236 0.7283578592 0.5380586891
O 4.9541471798 0.9400713791 1.0828748202
N 2.7545040426 0.3730442695 1.3074302700
C 1.4779478703 0.1014363917 0.8693533910
O 0.5718235203 -0.1978583507 1.6400936203
H -1.1880106885 0.9097472200 1.8063732797
H -3.8559858512 0.5890358388 0.9968379162
H -3.0049695630 2.0572010803 0.4715150741
H -2.8502326165 0.2495137345 -1.1957980002
H 0.1219166206 0.0595795209 -2.1739464846
H 0.1244265929 -2.1276331791 -0.3036428153
H -0.8811518204 -1.9495393342 -1.7525937586
H -1.6513927037 -1.3428614619 1.0883146996
H -3.5735487404 -2.1220447596 0.2960286455
H 2.1061476256 0.6066271869 -2.3835899766
H 4.3873481461 1.0865414365 -1.5499166082
H 2.8881967973 0.3115281916 2.3104189004
