41
CONF6
C 5.8278578694 0.8241201638 -1.9480537512
N 4.6903468277 0.5323123619 -1.0887569840
C 3.4326290904 0.2267395374 -1.4706124427
C 2.6886725577 0.0242734964 -0.3198565335
C 3.6250166380 0.2444570082 0.7260722258
N 4.8315739402 0.5513992356 0.2458396479
C 3.4890217770 0.2208844965 2.2043646027
F 2.5451055008 1.1197903444 2.6348381535
F 3.0456539265 -1.0247082041 2.6375301210
C 1.2499716300 -0.3224058155 -0.3941713287
O 0.6631233522 -0.2965496340 -1.4703249855
N 0.6522422362 -0.6667310984 0.7886479037
C -0.6924385576 -1.0746914698 0.9377420450
C -0.9595171199 -2.1804224268 1.7610161008
C -2.2608666841 -2.6011758488 1.9979079484
C -3.3444904427 -1.9334735368 1.4206292887
C -3.0776953675 -0.8325802951 0.6287265177
C -1.7658305232 -0.3931113826 0.3786865775
C -1.8732761572 0.8326047418 -0.5057685060
C -2.3610319616 0.3293250653 -1.9045832690
C -3.8146653089 -0.1621215486 -1.6298165412
C -4.0069691303 0.1136046833 -0.1032800833
C -3.1854705685 1.3805732435 0.0250580382
C -3.5181263201 2.5923228363 0.4351967624
Cl -5.1261260449 3.0011991317 0.9800530146
Cl -2.3900639618 3.9220827649 0.4813351927
H 6.6800154969 1.0454161877 -1.3060522304
H 5.6115109539 1.6896645688 -2.5806373498
H 6.0590997886 -0.0396704590 -2.5780213368
H 3.1251387918 0.1686054203 -2.5040816984
H 4.4392511276 0.4341218467 2.7034900042
H 1.2528281660 -0.8500038889 1.5791630925
H -0.1277870016 -2.7117061893 2.2150165372
H -2.4324470623 -3.4566981359 2.6429304716
H -4.3628567000 -2.2557812628 1.6125092563
H -1.0183491149 1.5021029271 -0.5269205238
H -2.3536482293 1.1626402208 -2.6126872040
H -1.6976155861 -0.4499955474 -2.2783441558
H -4.5459153271 0.4144701687 -2.2034163144
H -3.9555757350 -1.2222412760 -1.8556859959
H -5.0382967607 0.1413580660 0.2443179327
