41
CONF20
N -4.2187299979 -1.9656284130 3.0601744029
S -4.3831029866 -2.0926236429 1.3825597645
O -5.6157409587 -1.3968155757 1.0297005217
O -4.1608849481 -3.5083202764 1.0872935077
C -2.9870790100 -1.2063851474 0.6194312793
C -1.9604844066 -2.0154727339 0.1512172148
C -0.8575272318 -1.4696519025 -0.4880976577
C -0.7373503459 -0.0808496832 -0.6823724868
N 0.3295801651 0.4969084346 -1.3133944066
C 1.4586044800 -0.2753518158 -1.8393570323
C 2.6890773349 0.6314141944 -2.0064967136
C 3.1785273455 1.2252478793 -0.7122562297
C 2.7827534475 2.5065598591 -0.3165235579
C 3.1841669014 3.0322546171 0.9077315804
C 3.9957235246 2.2836894572 1.7540034456
C 4.4154212997 1.0156650936 1.3624894304
C 4.0131956500 0.4919211812 0.1378177445
N 1.7756030963 -1.4350726974 -1.0034285369
S 0.4814849969 -2.5493568879 -0.9830337123
O 0.2791759633 -2.9789962869 -2.3662240269
O 0.7417381928 -3.5028685842 0.0943089582
C -1.7742855628 0.7271367837 -0.1792149864
C -2.8808289180 0.1922516907 0.4562502898
C -3.9358700712 1.1791204830 0.9205498429
F -3.4443366443 2.4431655613 0.9497024823
F -5.0074852465 1.1975658955 0.1171572639
F -4.3558284431 0.9174145212 2.1850683307
H -4.2706561216 -1.0025294280 3.3752588749
H -3.3728119714 -2.4267408784 3.3814135540
H -2.0245687069 -3.0895268224 0.2911511603
H 0.4872050543 1.4744464774 -1.1254667416
H 1.1915271635 -0.6789160677 -2.8248823866
H 2.4232643378 1.4243238034 -2.7148153585
H 3.4673031991 0.0215529609 -2.4734924101
H 2.1798349725 3.1156399580 -0.9873426176
H 2.8716577420 4.0308979646 1.1951360561
H 4.3124835367 2.6927372125 2.7075600933
H 5.0663313363 0.4349150159 2.0080203225
H 4.3631681336 -0.4893310927 -0.1713323113
H 2.0013412449 -1.1713682227 -0.0427002744
H -1.7015969281 1.8009772202 -0.3064060478
