48
CONF9
C -6.6854994190 0.5486845266 0.5831999633
C -5.5291400688 -0.2355384695 -0.0203353028
C -4.2175268996 0.5311782765 0.1589702266
N -3.0770910051 -0.2461858150 -0.3738871705
C -2.9749288592 -1.5600094451 0.2694114791
C -4.2933700035 -2.3134270994 0.0891653502
N -5.4694664097 -1.5818509581 0.5737735641
C -1.9057862653 0.4321208286 -0.6490772112
C -1.8980884681 1.5415545682 -1.5388187447
C -0.7678110925 2.2320715737 -1.8653974987
C 0.4759248836 1.8347987278 -1.3428825742
C 0.5075898818 0.7081660808 -0.4955936885
C -0.6637948719 0.0361861984 -0.1432320060
N 1.7413846878 0.2926110202 0.0185007302
C 2.8747615098 0.9606531111 -0.2716886605
C 2.9014262288 2.0665094652 -1.0842209020
C 1.6832240951 2.5598673297 -1.6759807321
O 1.6665318168 3.5695089748 -2.4364724709
C 4.2074631723 2.7208895284 -1.3371160430
O 5.2610540591 2.3350122977 -0.8533092540
O 4.1583248028 3.7818654905 -2.1459366891
C 1.8218031759 -0.8639960048 0.8625710456
C 1.7255304586 -2.1356590129 0.3033055567
C 1.7982519803 -3.2815345641 1.0731088469
C 1.9811172045 -3.1078712749 2.4365783007
C 2.0902185363 -1.8650546356 3.0399066946
C 2.0025199210 -0.7355638719 2.2349971771
F 2.0535674409 -4.2113402506 3.2086337362
F 1.5509310053 -2.2482635679 -1.0250579730
F -3.0594743614 1.8957780390 -2.1386082383
H -6.7634573691 1.5387144238 0.1241193866
H -7.6284545336 0.0170531939 0.4285669242
H -6.5377770668 0.6831686865 1.6612887204
H -5.6971357553 -0.3672270774 -1.0996524329
H -4.2754327798 1.4974122119 -0.3421098590
H -4.0521503952 0.7136648976 1.2362823064
H -2.7446090700 -1.4578833082 1.3451638702
H -2.1673684606 -2.1281641436 -0.2041226622
H -4.4366374590 -2.5242064196 -0.9789796742
H -4.2251327699 -3.2732234009 0.6125940580
H -5.3897593362 -1.4754285168 1.5843421182
H -0.8200642593 3.0655578712 -2.5566194859
H -0.6129000161 -0.7866836933 0.5564822384
H 3.7845212979 0.5695718432 0.1712391680
H 1.7212345443 -4.2658822408 0.6265556303
H 2.2328087861 -1.7867691861 4.1110836969
H 2.0714635429 0.2569147147 2.6676493578
H 3.1794845543 3.9016356010 -2.4144926995
