46
CONF65
C -0.1272068256 -1.9986065488 0.2425888046
C -1.6171538665 -2.0036245028 0.0024397001
C -2.5847727843 -2.0649130810 1.1586738563
C -2.4576410974 -0.7707090487 0.3302293636
C -1.8529349476 0.4512957290 0.8872055108
O -1.0640535447 0.5347380265 1.8085949604
O -2.3024225946 1.5334930329 0.1944315055
C -1.7836253837 2.8175371944 0.5961015737
C -0.4608351985 3.1461392458 -0.0494479349
C 0.2753471286 2.2022650123 -0.7565216311
C 1.5002152271 2.5664303463 -1.3112984729
C 1.9989869318 3.8553666688 -1.1946379136
C 1.2483386814 4.7993699104 -0.4950638875
C 0.0319310537 4.4499631481 0.0783237332
O 2.2225268359 1.6509730339 -2.0638060486
C 2.6002007427 0.4636133255 -1.4638533539
C 2.8221968273 0.3530464637 -0.0920788367
C 3.2671518737 -0.8612966620 0.4237286495
C 3.4914350365 -1.9519417202 -0.4128932751
C 3.2656938394 -1.8231269650 -1.7824399934
C 2.8168988481 -0.6186549556 -2.3143779308
C -2.1274806926 -2.1381457474 2.5469382533
C -2.7927380846 -2.7326309291 3.5376999790
Cl -2.1593331422 -2.8154561870 5.1629292459
Cl -4.3513816535 -3.4962446956 3.3613464410
C -2.0237496775 -2.7411047679 -1.2546733943
H 0.1711635526 -1.4084287942 1.1083394678
H 0.2224233359 -3.0270366277 0.3848045410
H 0.3864406914 -1.5888705834 -0.6337756911
H -3.5127796010 -2.5891513421 0.9532972404
H -3.2829889327 -0.5819095139 -0.3475292115
H -1.6912187689 2.8485446939 1.6869852095
H -2.5450242100 3.5377351540 0.2858019676
H -0.0825608522 1.1869340685 -0.8894729966
H 2.9540854976 4.1067748280 -1.6429591517
H 1.6215559408 5.8136230679 -0.3951296084
H -0.5442161458 5.1914462286 0.6247079728
H 2.6514932127 1.2013935766 0.5617420708
H 3.4403897602 -0.9496552259 1.4918900420
H 3.8363842072 -2.8947576478 -0.0015156717
H 3.4335194757 -2.6669724894 -2.4445825185
H 2.6353931175 -0.5037441563 -3.3779945529
H -1.1765831041 -1.6885485533 2.8066390137
H -3.1081474532 -2.7330414622 -1.3946702440
H -1.6890860216 -3.7827270283 -1.1986107208
H -1.5558359384 -2.2793835196 -2.1310824604
