49
CONF55
C -3.6500849919 1.5789867202 4.0393031193
C -3.3359626193 0.1449410210 3.6694623996
C -2.4377069427 -0.1565695951 2.4471756905
C -3.9490433273 -0.4783202925 2.4519902295
C -4.2902353004 -1.9562428848 2.4423303621
C -4.8949663158 0.3154683174 1.5759465915
C -1.8545681995 0.8935141765 1.6177332766
O -2.3186947133 1.9679944761 1.2915055744
O -0.5937510970 0.5038809096 1.2021344768
C 0.0855290928 1.4421043095 0.3354503693
C 0.4820701268 2.6299018110 1.1040023742
N 0.8194943793 3.5615077755 1.6977319114
C 1.2864084979 0.7389369450 -0.2496258140
C 2.3564256708 0.3691950512 0.5666761592
C 3.4333275613 -0.3113716051 0.0099054191
C 3.4583477226 -0.6192372574 -1.3478300918
C 2.3873184866 -0.2318705054 -2.1501044022
C 1.2963023556 0.4445498289 -1.6091883799
O 2.3049226695 -0.5506113145 -3.4882784716
C 3.4705809173 -0.6121142853 -4.2412569425
C 4.4208418024 0.4046549550 -4.1896554533
C 5.5329808450 0.3281690392 -5.0227298417
C 5.6880728926 -0.7434259634 -5.9014408545
C 4.7212914595 -1.7453946500 -5.9456769799
C 3.6071162713 -1.6873221340 -5.1116070426
C -3.0535875181 -0.6981506339 4.8982698004
H -4.5603822455 1.5990642484 4.6495823515
H -3.7954817446 2.2287304703 3.1790182156
H -2.8342069593 1.9929120216 4.6419127899
H -1.7902597372 -1.0191598252 2.5645665446
H -4.3627256040 -2.3105431292 1.4086262903
H -3.5500236777 -2.5705941190 2.9559762086
H -5.2634976147 -2.1157420935 2.9210804161
H -4.8848674137 -0.0891786861 0.5579728869
H -4.6530667346 1.3745958858 1.5192802962
H -5.9135213414 0.2102719329 1.9670083315
H -0.5934743842 1.7735833576 -0.4576350091
H 2.3449024589 0.6062434225 1.6259059057
H 4.2655302490 -0.6124327025 0.6377818302
H 4.2986815567 -1.1541144372 -1.7765989493
H 0.4709726394 0.7313140215 -2.2528616014
H 4.2895725923 1.2409705520 -3.5107103192
H 6.2774271694 1.1175124823 -4.9896173250
H 6.5564862424 -0.7946158625 -6.5498693093
H 4.8332687163 -2.5823125509 -6.6278205400
H 2.8462242255 -2.4605471015 -5.1294406216
H -3.9615618166 -0.7806535187 5.5071354743
H -2.2833843675 -0.2139121933 5.5078639830
H -2.7090423373 -1.7045665753 4.6582876731
