39
CONF3
C 3.1250217138 -1.3943192062 0.9709295763
C 2.1356300483 -0.7920903059 0.0279784003
C 2.2678919181 -0.7639936761 -1.3031999006
C 1.2195848299 -0.0815866743 -2.1502149790
C 0.0746282855 0.4455765848 -1.2679338697
C -0.3013012991 -0.7060378736 -0.2817380247
C 0.8776285827 -0.1642075609 0.5925900264
C 0.6545146186 1.2531034357 -0.0624301977
C -0.3845742092 2.1310760488 0.6605409527
C -1.8526458440 1.7125698859 0.6557743158
C -2.0937210033 0.3347308783 1.2549217584
C -1.7003389742 -0.8351691716 0.3402450071
C -2.7246778504 -0.9961617799 -0.7927493973
C -1.7058404339 -2.1180361561 1.1882363118
C 1.8792929472 2.1345330302 -0.2922779164
H 2.6549477083 -2.1741967150 1.5840615221
H 3.9740238426 -1.8341280806 0.4406542797
H 3.5054483236 -0.6360683898 1.6680942272
H 3.1349272274 -1.2004054972 -1.7944540961
H 1.6744932292 0.7407767142 -2.7226319955
H 0.8167187993 -0.7816491805 -2.8967806355
H -0.7088773958 0.9176878067 -1.8709568543
H -0.0710643303 -1.6899122386 -0.7094706458
H 0.8152710223 -0.2424011202 1.6839967193
H -0.3250872135 3.1334206513 0.2163196314
H -0.0520856789 2.2453271730 1.7031610084
H -2.4127971659 2.4619388187 1.2286668238
H -2.2554005187 1.7574783267 -0.3633355241
H -1.5354309725 0.2596311237 2.1988545999
H -3.1531183505 0.2152563546 1.5178025315
H -3.7140994382 -1.2338184389 -0.3863767999
H -2.4302654389 -1.8111148678 -1.4635809540
H -2.8174272566 -0.0886458648 -1.3964664708
H -2.6660942189 -2.2388302102 1.7022006575
H -0.9178556666 -2.0853467038 1.9488164441
H -1.5398782909 -3.0035985147 0.5653043316
H 1.6356239813 2.9371240456 -0.9983540232
H 2.7355970265 1.5824783042 -0.6813579594
H 2.1813374457 2.6090085312 0.6494221108
