39
CONF97
C 5.0901935892 0.3245060633 -2.4589047812
C 4.1215334231 -0.0697136641 -1.3460821921
C 2.7356327709 0.5465281789 -1.5505759223
C 1.7909755904 0.2067889554 -0.4182150360
C 1.4133615201 -1.2577307843 -0.2900246083
O 0.1388465636 -1.1901681714 0.3740439359
C -0.5021778099 -0.0041989551 -0.0796501222
C -1.5087415033 -0.3704650082 -1.1961146861
N -2.6193388476 -1.1438520644 -0.6735489654
C -2.6665379983 -2.4614497141 -0.3921078470
N -3.8271821351 -2.7684121149 0.1762959171
C -4.4628288092 -1.5636710629 0.2275163869
N -3.7710500339 -0.5476445134 -0.2721478852
O 0.4963992422 0.8111401877 -0.6792397454
C -1.1696393335 0.6674179388 1.1168682794
C -1.7179870803 1.9533112539 1.0703692580
Cl -1.6681687011 2.9360685341 -0.3872869559
C -2.3484621829 2.5302663355 2.1678108421
C -2.4471355594 1.7900841452 3.3370976973
Cl -3.2473455731 2.5070810603 4.7249033287
C -1.9326747409 0.5052970723 3.4296954032
C -1.2997087887 -0.0353317994 2.3177623483
H 5.2162896789 1.4119347367 -2.4976827742
H 6.0756083727 -0.1252841931 -2.3045272625
H 4.7169143037 -0.0047786864 -3.4346781241
H 4.5211001438 0.2495184417 -0.3749666165
H 4.0351104012 -1.1631142154 -1.3057304727
H 2.2991799675 0.1901164901 -2.4926158589
H 2.8242199928 1.6374497373 -1.6215033664
H 2.1749507178 0.5855895456 0.5408772174
H 2.0855608171 -1.8408268951 0.3418495012
H 1.3168581134 -1.7299290370 -1.2786027028
H -1.9057561915 0.5277625477 -1.6699775815
H -0.9771413704 -0.9669400989 -1.9426159588
H -1.8551367050 -3.1383757002 -0.6243671578
H -5.4576112754 -1.4295710661 0.6336692647
H -2.7560225761 3.5316451528 2.1045009828
H -2.0199228849 -0.0646617928 4.3470794165
H -0.8921648912 -1.0363860361 2.3808267326
