47
CONF331
C -2.4477314810 0.0225163053 3.4054834246
C -2.4424317373 0.9193777507 2.1701810548
C -3.8444932669 1.4023007328 1.7960733485
C -3.8620425879 2.2998405349 0.5791649430
O -3.4321797990 1.4894043356 -0.5627859811
C -3.0632904228 2.1420021738 -1.6622590255
O -3.1249551076 3.3453189224 -1.8203928095
C -2.5802818310 1.2027449525 -2.7677375629
C -3.7125915987 0.9516889068 -3.7532404405
O -2.1701078791 -0.0761291248 -2.2757303179
C -1.1114522359 -0.1333376880 -1.4105239330
C -0.8930016386 -1.3811356735 -0.8182331591
C 0.1432994556 -1.5502952539 0.0880721331
C 0.9542405310 -0.4657626035 0.3985514113
C 0.7536974976 0.7745380478 -0.1832879014
C -0.2833789884 0.9475273960 -1.0980411923
O 1.9508120741 -0.6161486201 1.3719500673
C 3.2098687208 -0.9358004812 0.9654248109
C 3.5480985852 -1.1537039412 -0.3770941279
C 4.8618882081 -1.4707991207 -0.6596735233
C 5.7834573455 -1.5596967705 0.3865441150
C 5.3411198135 -1.3283301432 1.6832696793
N 4.0738674271 -1.0207195781 1.9717318580
C 7.2054327213 -1.8992457343 0.0889462084
F 7.7624328725 -1.0206520485 -0.7887315929
F 7.3273945525 -3.1280578850 -0.4846390198
F 7.9840343610 -1.9017927597 1.1933240030
H -1.4362117616 -0.3122730792 3.6562677644
H -2.8540032031 0.5518677069 4.2745672230
H -3.0645791401 -0.8672887544 3.2372902130
H -1.7986532179 1.7920821018 2.3426448783
H -2.0085999281 0.3756217659 1.3228071780
H -4.5083003976 0.5447981622 1.6268814217
H -4.2744956873 1.9757365214 2.6274501234
H -3.1676704372 3.1395417414 0.6839461524
H -4.8619261163 2.6867015828 0.3592116108
H -1.7478122141 1.7043528511 -3.2772595420
H -4.5498539434 0.4566353533 -3.2535189735
H -3.3520433148 0.3173938477 -4.5663953587
H -4.0539954080 1.9016245359 -4.1706017855
H -1.5507427186 -2.2066587439 -1.0688891031
H 0.3194383667 -2.5117571919 0.5592756440
H 1.4003941467 1.6061491232 0.0772166998
H -0.4285602329 1.9260108021 -1.5404014447
H 2.8104467880 -1.0763552208 -1.1656130921
H 5.1694202671 -1.6469781939 -1.6858710648
H 6.0260415872 -1.3900576440 2.5246442767
