46
CONF15
C 4.2249189388 0.6360336038 -1.1632090069
C 2.7267473855 0.4257119067 -1.3528086347
C 2.0564503426 1.4871730862 -2.3038209182
N 0.6806885345 1.5946954777 -1.8714472130
C 0.3912332380 1.4756487510 -0.4353078289
S 1.8641539112 0.6566279557 0.3029275536
C -0.8783050876 0.6369272626 -0.8157454994
C -0.4151580783 0.8429251151 -2.2746513531
O -0.8007634939 0.4980158517 -3.3674552991
N -2.1825275450 1.0951864093 -0.4590853600
C -2.9440343340 0.5863374795 0.5478217059
O -4.0468385989 1.0546283679 0.8279498226
C -2.3670836205 -0.5780376615 1.2990286013
C -2.8706115762 -1.8677769044 1.0874316520
C -2.3932895337 -2.9436819628 1.8414906726
C -1.4163947324 -2.7045904807 2.8032229222
C -0.8954092293 -1.4346369788 3.0311382862
C -1.3748244842 -0.3688933514 2.2651808311
O -0.9458726696 0.9186137205 2.3785810404
C 0.0102932329 1.2157368985 3.4094132263
O -3.8075169959 -1.9679202514 0.1076533152
C -4.3521680490 -3.2687873728 -0.1643530431
C 2.7833888870 2.8229819278 -2.3080288384
O 2.3613827963 3.6441762915 -1.3350316088
O 3.6626522826 3.0944961624 -3.0957912705
C 2.4445666793 -0.9745701423 -1.8976632810
H 4.7300535074 0.5496367747 -2.1308005635
H 4.4522664555 1.6137944265 -0.7304755063
H 4.6264351795 -0.1361381811 -0.5013419277
H 0.1851744332 2.4186894878 0.0755906075
H -2.5390440713 1.9291763867 -0.9105086030
H -2.7666057396 -3.9476516393 1.6883398999
H -1.0460992083 -3.5372671056 3.3931857352
H -0.1351989456 -1.2878804863 3.7871139398
H 0.2118953356 2.2833876965 3.3205815963
H 0.9370442655 0.6514864736 3.2604859813
H -0.4067409655 0.9948918765 4.3981325868
H -3.5672387668 -3.9602453420 -0.4899220222
H -5.0712425656 -3.1213249597 -0.9700596136
H -4.8619455211 -3.6708546051 0.7180997425
H 2.9774943710 -1.1139310005 -2.8452342188
H 1.3772033188 -1.1377486153 -2.0713305731
H 2.7918981791 -1.7280618221 -1.1863892618
H -0.7488203538 -0.4129538708 -0.5336628496
H 2.0870375881 1.1090258317 -3.3301057016
H 2.8771834248 4.4688528654 -1.3792727961
