45
CONF63
C -1.2163561196 2.5451424373 -1.1990571907
C -1.9203421349 1.8907616942 -0.0548911733
C -2.1910789074 0.5827312991 0.0233375842
C -2.8994698659 -0.0203932070 1.1623115651
C -2.3668271717 -1.2981330676 1.8843943480
C -3.6631348360 -1.3125339181 1.0855213401
C -3.8011496244 -2.0614866834 -0.2216687841
C -4.9088242470 -1.4056578914 1.9456299463
C -1.0615014222 -1.8865910338 1.5526857540
O -0.2015342346 -2.0957620842 2.3918073833
O -0.8765331430 -2.1616742888 0.2380203121
C 0.4499412831 -2.6248839312 -0.1378844673
C 1.3915106963 -1.4612273352 -0.2534556683
C 1.2218364623 -0.5195381573 -1.2655894307
C 2.0434545176 0.5900678166 -1.3759408001
C 3.0770676876 0.8224474864 -0.4739485825
C 3.2617663877 -0.1292795421 0.5209598650
C 2.4424711433 -1.2456067813 0.6314013829
F 2.7005121324 -2.1290355307 1.6078156740
F 4.2606442377 0.0201013496 1.4090023267
C 3.9856400362 2.0066057795 -0.6176190197
O 5.0286897807 1.6459300247 -1.5259707090
C 5.9330828231 2.7359306533 -1.7220597200
F 1.8385725344 1.4518926195 -2.3870990004
F 0.2419344642 -0.6953127666 -2.1703128187
H -0.9802388800 1.8249971153 -1.9874498321
H -0.2802973603 3.0124119558 -0.8671210802
H -1.8274059582 3.3467090303 -1.6315583285
H -2.2253353355 2.5412042216 0.7664349597
H -1.8818638868 -0.0668118221 -0.7907980646
H -3.2798204167 0.7068464260 1.8769754751
H -2.4916493801 -1.2619097065 2.9618589440
H -4.6911441779 -1.6940342586 -0.7444828307
H -3.9439622757 -3.1297284544 -0.0257464429
H -2.9433458316 -1.9499703667 -0.8813120808
H -4.7931975400 -0.8522488338 2.8817871685
H -5.1290163137 -2.4516955977 2.1863921642
H -5.7671151999 -0.9920076770 1.4047769673
H 0.8140097429 -3.3529127800 0.5867770537
H 0.3046797765 -3.1002493365 -1.1087101327
H 4.4050417141 2.2809603048 0.3598849332
H 3.4212436822 2.8661616028 -1.0059325295
H 5.4127492159 3.6078795426 -2.1430588705
H 6.4104379117 3.0263880063 -0.7754401146
H 6.6958588429 2.3935153741 -2.4240003865
