74
CONF18
C -0.5727305328 -0.8125892659 0.4933613842
C 0.1524191721 -2.0889632550 0.8936888711
O -0.6519038357 -2.6005408798 2.0150504963
C -1.3505384806 -1.5896827919 2.5935606013
O -2.0198878010 -1.7731700286 3.5841650690
C -1.0754282123 -0.3125787938 1.8385772150
C -2.1761883141 0.7388045112 1.6814913334
C -3.5057489972 0.1660078129 1.2028271625
C -3.7994252929 0.0636585093 -0.1585976807
C -5.0077207520 -0.4930522799 -0.5825258763
O -5.3841852145 -0.6346994493 -1.8868938478
C -4.4638452111 -0.1732759557 -2.8841461976
C -5.9351645936 -0.9465429250 0.3614224559
O -7.1167352189 -1.4840041215 -0.0669382066
C -5.6403548734 -0.8267843052 1.7247151260
O -6.6311034491 -1.2920641220 2.5454607077
C -6.3961510255 -1.2406850941 3.9595128648
C -4.4353264100 -0.2712129218 2.1485898126
C -1.6536301227 1.8129198340 0.7364127735
C -2.3135359452 3.0597376019 0.7683837004
C -1.8941409038 4.0314799797 -0.1043100072
C -0.8619379520 3.8063672658 -1.0117868613
O -0.6857573245 4.9166994524 -1.7989742341
C -1.4743199292 5.9504696321 -1.1727236128
O -2.4020599432 5.2918404629 -0.2824431302
C -0.2113429339 2.6016862423 -1.0745866067
C -0.6139377829 1.5866902670 -0.1767738742
C 0.1780951304 0.2919207915 -0.2243724481
O 1.4610016206 0.5279075914 0.4267293764
C 2.5742870645 0.3054082054 -0.3733185255
O 2.7356032639 -1.1128430312 -0.5337610095
C 3.8708391233 -1.4090333086 -1.3448190947
C 3.9603043848 -2.9071738757 -1.5818508279
O 5.1761602834 -3.1714230364 -2.2981105278
C 6.3216111490 -2.7236762644 -1.5816111637
C 7.5469180260 -3.0578095258 -2.3882984646
O 6.2812471722 -1.3077248587 -1.3901760632
C 5.1323659165 -0.9536142328 -0.6154521755
C 5.0767547064 0.5470185221 -0.4185515495
O 6.1571416873 1.0464659673 0.3728847846
C 3.7920018483 0.9039568815 0.3305563696
O 3.6079339955 2.3154770577 0.3799950691
H -1.4385260164 -1.0820546467 -0.1253124477
H 0.1689541128 -2.8655921168 0.1286066990
H 1.1607544459 -1.8958955847 1.2658516186
H -0.2320713551 0.1550103126 2.3740259688
H -2.3537191207 1.2016743892 2.6588199642
H -3.0916372357 0.4404972582 -0.8858961339
H -3.5127247383 -0.7156928341 -2.8238679265
H -4.9423233127 -0.3765006711 -3.8425954190
H -4.2813021709 0.9033073576 -2.7837380013
H -7.6260655753 -1.7338713692 0.7188069260
H -5.5111527302 -1.8288894845 4.2274997784
H -6.2703419914 -0.2053031328 4.2955455418
H -7.2827840792 -1.6740044128 4.4224579814
H -4.2082871891 -0.1821397058 3.2029048898
H -3.1313360269 3.2338593767 1.4603257411
H -0.8144590265 6.6035812079 -0.5861174870
H -2.0309490625 6.4961633000 -1.9367521101
H 0.5849782212 2.4268926941 -1.7906274227
H 0.3659510271 0.0135800496 -1.2681986230
H 2.4536820418 0.7628188443 -1.3727769819
H 3.8007384254 -0.8887754185 -2.3143354620
H 3.1369572273 -3.2707845059 -2.2014174079
H 3.9561771418 -3.4383912513 -0.6169687277
H 6.3257323215 -3.2059483833 -0.5872915975
H 7.4989963398 -2.5595842286 -3.3606956469
H 7.6063910324 -4.1378573421 -2.5395674562
H 8.4408819329 -2.7245437810 -1.8565115196
H 5.1771249342 -1.4547830039 0.3670242864
H 5.0641028040 1.0397221384 -1.4039245791
H 6.9592386400 1.0106017091 -0.1635328500
H 3.8424172233 0.4776222143 1.3457868385
H 4.4330175532 2.6939098458 0.7135812009
