46
CONF8
C -1.1733464259 0.1368515816 1.0019849333
C -1.7801644891 -0.3011250122 2.3435141791
C -3.2977169046 -0.4361078054 2.0504435116
C -3.4737037490 -0.1926572598 0.5133524671
O -4.4687178670 -1.0401052954 -0.0821439026
C -3.8340503003 1.2065673949 0.2667300858
C -4.1578164724 2.3557081415 0.0890719764
C -2.0642542896 -0.5438421206 -0.0560228071
C -1.9224956771 -2.0755933850 -0.0612759417
C -1.7217463944 0.0196583227 -1.4345888190
C -0.2227369052 -0.1297265626 -1.7416985355
C 0.6611433027 0.4872369711 -0.6426982392
C 2.1545914386 0.3857240504 -0.9229730561
C 3.0840850285 0.2510329329 0.1235689670
C 2.6544741261 0.1444637300 1.5694323875
C 1.2072308160 0.5667910698 1.7976347513
C 0.3098194170 -0.0816325494 0.7478939325
C 4.4526354744 0.1943512499 -0.1601477422
C 4.9186805306 0.2749374461 -1.4676374203
O 6.2518114323 0.2243905676 -1.7807568062
C 4.0111978662 0.4194678493 -2.5153617297
C 2.6533635133 0.4739472807 -2.2301732985
H -1.3515911720 1.2199659233 0.9016458276
H -1.3588785452 -1.2620864737 2.6594992855
H -1.5796620759 0.4199451772 3.1401244410
H -3.6676065430 -1.4411731460 2.2709838091
H -3.9004173029 0.2715655938 2.6242109686
H -5.3284258483 -0.7668705474 0.2640430863
H -4.4337219602 3.3720053532 -0.0770782959
H -0.8943569771 -2.3746239120 -0.2727083880
H -2.2101839653 -2.5223803788 0.8930833940
H -2.5618198199 -2.5026569197 -0.8379024865
H -1.9797834973 1.0858039224 -1.4600545418
H -2.3129842108 -0.4772230171 -2.2136082122
H -0.0273814948 0.3588502826 -2.7008648775
H 0.0460765868 -1.1857741174 -1.8716267904
H 0.4072709088 1.5613427409 -0.6009713056
H 2.7761198411 -0.9005227843 1.8892491317
H 3.3368463742 0.7333454851 2.1931076684
H 1.1113765901 1.6596284018 1.7275875992
H 0.8952832623 0.2785110246 2.8075042136
H 0.5244310623 -1.1617998508 0.7501136158
H 5.1626883099 0.0890133126 0.6584513379
H 6.7647946209 0.1212031340 -0.9683445497
H 4.3727632015 0.4896381598 -3.5362962311
H 1.9668783053 0.5939539530 -3.0612748593
