60
CONF403
C 5.8688266866 3.7744604125 1.1197254531
C 6.0685727963 2.2852557702 0.8516913402
N 5.4004114012 1.8406568877 -0.3753446757
C 6.1643211418 1.9419481602 -1.6226132673
C 6.9683270479 0.6816601834 -1.9392872463
C 4.1057229578 1.4195590130 -0.2909612905
O 3.4572173283 1.4609656256 0.7630256052
N 3.5495640677 0.9436894914 -1.4782754110
C 2.2392382278 0.4360569722 -1.5680651655
C 2.0005517874 -0.7072281791 -2.3189918636
C 0.7146483877 -1.2417531987 -2.4786460678
C -0.3732792773 -0.5822630500 -1.8627634495
C -0.1322670710 0.5742179636 -1.1104074903
C 1.1503255171 1.0815413499 -0.9703634822
O -1.6157525382 -1.0805348829 -2.0937559665
C -2.7468551902 -0.5379557745 -1.3853223025
C -2.8095608874 -1.0120138378 0.0517718737
C -3.9444272969 -0.3085721384 0.7996386413
N -4.0806056501 -0.9423645429 2.1153180824
C -5.3620367751 -0.7255700521 2.8368497229
C -5.7351511083 0.7621703636 2.9299286612
C -5.1604950330 -1.2919639446 4.2454242166
C -6.4795632189 -1.5045453353 2.1362108324
O -3.0280240990 -2.4261146151 0.0501061877
C 0.6138029433 -2.4905828626 -3.2903374467
O 1.5326850073 -2.7908379156 -4.0504071322
C -0.5707784181 -3.4087660054 -3.1553146856
H 6.4081435312 4.0695169671 2.0254926553
H 4.8075353589 3.9988262083 1.2594278864
H 6.2463140070 4.3769997616 0.2873753952
H 5.6883123544 1.6944020888 1.6885292592
H 7.1347618517 2.0577161323 0.7430459597
H 5.4909258682 2.1965218610 -2.4478243903
H 6.8436233143 2.7946082424 -1.5148079904
H 6.3175733247 -0.1871404514 -2.0818429024
H 7.6648180126 0.4544414959 -1.1264362512
H 7.5475459876 0.8286864912 -2.8560366881
H 4.1827332016 0.5976447206 -2.1832738132
H 2.8271961921 -1.2278660848 -2.7925044387
H -0.9471884006 1.1081566286 -0.6389448506
H 1.3042609691 1.9882649777 -0.3993997440
H -2.7547934006 0.5562574523 -1.4437493701
H -3.6145018565 -0.9209830152 -1.9294813573
H -1.8560944454 -0.7883756542 0.5594803312
H -3.7357606808 0.7723986096 0.8424127014
H -4.8724982733 -0.4490124482 0.2332171511
H -3.3285426600 -0.5996181758 2.7082140021
H -5.9242537208 1.1871832787 1.9388984328
H -4.9280983683 1.3322799159 3.4041562272
H -6.6432359209 0.8896011037 3.5284727774
H -4.3598061119 -0.7566641406 4.7691776092
H -4.8961421543 -2.3534527142 4.1983142215
H -6.0786351308 -1.1865654607 4.8305987338
H -6.2134023174 -2.5635739561 2.0553165667
H -6.6815306483 -1.1180320442 1.1328253772
H -7.4052876694 -1.4207665377 2.7139138057
H -3.4009774895 -2.6002920880 0.9343556543
H -0.3023258152 -4.3844717669 -3.5643476226
H -1.4158147759 -3.0019236896 -3.7206111289
H -0.9002724662 -3.4958834131 -2.1173827543
