49
CONF97
C -3.9810983829 1.7393286847 1.4289768777
C -3.5834228942 0.5857384946 2.3259212495
C -2.0939571213 0.2336315208 2.5214618826
C -3.0583823444 -0.6893977293 1.7378140973
C -3.3591574446 -2.0185476062 2.4035411011
C -2.9046132753 -0.8390505655 0.2393533531
C -1.0093138795 0.9612140841 1.8685446152
O -0.9951678288 1.5207361176 0.7911355225
O 0.1098447685 0.9401688103 2.6820751156
C 1.2746729363 1.5703607184 2.1046607738
C 2.1635574168 1.8498760313 3.2334627227
N 2.8941130522 2.0733927112 4.0994718765
C 1.9604944668 0.6812566005 1.0857995930
C 2.2458314062 -0.6472622933 1.4009333172
C 2.8629112281 -1.4535850840 0.4500432294
C 3.2034865580 -0.9482269313 -0.8014735916
C 2.9091685144 0.3812389754 -1.0977058293
C 2.2876629641 1.2025244925 -0.1611099578
O 3.2667097926 0.9733868167 -2.2905557636
C 3.2401389592 0.2154193534 -3.4537883077
C 4.3101795972 0.3607720377 -4.3293217011
C 4.2860876093 -0.3171820267 -5.5459354955
C 3.2077789379 -1.1349424124 -5.8764145991
C 2.1427601389 -1.2671287979 -4.9860650042
C 2.1484413890 -0.5894455108 -3.7705208956
C -4.4210516915 0.5526735294 3.5905415206
H -3.8972369289 2.6827201980 1.9795062873
H -5.0301267865 1.6154054580 1.1364517663
H -3.3762665434 1.8208444029 0.5287971902
H -1.8360736144 -0.1251764237 3.5123998327
H -3.3596883076 -1.9614958948 3.4924415419
H -4.3404632477 -2.3826637419 2.0771923428
H -2.6099310980 -2.7591314844 2.1044881806
H -2.6141080090 0.0811895074 -0.2633715140
H -3.8549546064 -1.1828049936 -0.1850874633
H -2.1463966833 -1.5987378036 0.0194810142
H 0.9964286819 2.5250028601 1.6427768494
H 1.9842969288 -1.0469434250 2.3753601185
H 3.0936232845 -2.4873761249 0.6859088902
H 3.6921824280 -1.5776189715 -1.5370955327
H 2.0568995927 2.2312594967 -0.4184223515
H 5.1433687018 0.9988644892 -4.0539228668
H 5.1186062255 -0.2072901108 -6.2337709217
H 3.1947801375 -1.6643050598 -6.8234213705
H 1.2944914047 -1.8948181131 -5.2406781924
H 1.3181752599 -0.6810755829 -3.0777977965
H -5.4656824030 0.3363131317 3.3382448235
H -4.3888788715 1.5326673424 4.0782757463
H -4.0807208104 -0.1917793838 4.3110667518
