63
CONF411
C -8.3112611183 -3.5279217508 -0.5919988812
C -7.2832768353 -2.4066459833 -0.7264495560
C -7.6480298793 -1.1692150593 0.0925228952
C -6.6263753691 -0.0395748337 -0.0289159581
C -6.9985985716 1.1879547653 0.8031926344
C -6.0556623475 2.3815978074 0.6282115291
C -4.6208732085 2.1216070696 1.0897189161
C -3.7484950294 3.3761244681 1.0302415532
C -2.3316035089 3.1840237953 1.5779834631
C -1.4686022090 2.2120955425 0.7724971636
C -0.0372752008 2.1171098708 1.2987917517
C 0.8393488137 1.1535129652 0.5005795518
C 2.2634348335 1.0490109970 1.0435658560
C 3.1478987838 0.0917587917 0.2456370186
C 4.5682354961 -0.0025954170 0.8042646198
C 5.4572304261 -1.0441961602 0.1177186744
C 5.7511995309 -0.7385203411 -1.3520061840
C 6.6531332772 -1.7728399016 -2.0342702641
C 8.0672455637 -1.8536665416 -1.4556173112
C 9.0021057607 -2.7291628956 -2.2822066891
O 8.6098892216 -4.1053493941 -2.3064750888
H -9.2993925966 -3.1963896301 -0.9289650087
H -8.0318878877 -4.4039031704 -1.1853314761
H -8.4078250563 -3.8470944098 0.4514344586
H -7.1812499571 -2.1231436025 -1.7822915526
H -6.2967435937 -2.7708748139 -0.4106756283
H -7.7522500167 -1.4520834884 1.1496522232
H -8.6353401154 -0.8034925565 -0.2233715398
H -6.5292039772 0.2532092729 -1.0843259182
H -5.6420240510 -0.4162093366 0.2776675133
H -7.0324591332 0.9072274776 1.8654103304
H -8.0177244991 1.4985613574 0.5364224168
H -6.0462384348 2.6873894802 -0.4275181190
H -6.4574569824 3.2354718738 1.1901570428
H -4.6358737200 1.7387768835 2.1209459672
H -4.1748161395 1.3325814661 0.4734572159
H -4.2430993947 4.1753862080 1.5983283180
H -3.6920794413 3.7294905956 -0.0091902965
H -1.8266857101 4.1588692211 1.6079639294
H -2.3905036636 2.8374839398 2.6194830502
H -1.9184053660 1.2109511238 0.7835952379
H -1.4512005839 2.5302299429 -0.2798153457
H 0.4210957403 3.1161155728 1.2903558597
H -0.0592217096 1.8008876156 2.3512022769
H 0.3768832898 0.1564304908 0.4994049441
H 0.8718637661 1.4765602847 -0.5493954460
H 2.7241577540 2.0469765509 1.0508743224
H 2.2284892545 0.7219333477 2.0922307555
H 2.6922081080 -0.9089863402 0.2430833303
H 3.1732758900 0.4212836426 -0.8008986276
H 5.0498152049 0.9834479678 0.7394863233
H 4.5074736113 -0.2421680792 1.8742099762
H 4.9841824630 -2.0338960475 0.1928887016
H 6.4014394221 -1.1120182495 0.6708997123
H 6.2173692456 0.2544398547 -1.4279657068
H 4.8082679589 -0.6803347555 -1.9083644454
H 6.1674160674 -2.7568870034 -1.9666491470
H 8.0434324098 -2.2426084961 -0.4313822042
H 8.4967256966 -0.8425118754 -1.4078095950
H 10.0066552930 -2.7229477427 -1.8472070270
H 9.0815547689 -2.3316278925 -3.3077799143
H 7.7708991319 -4.1656849833 -2.7749699656
H 6.7234767534 -1.5284363779 -3.1040173042
