51
CONF140
C -0.9395645234 -2.4975540646 -2.6696393399
N -1.0467833214 -2.7905911726 -1.2421183963
C -1.4850044290 -4.1853045752 -1.0869002777
C -1.5854718470 -4.5969239008 0.3742749321
C -2.5556768771 -3.6753746347 1.1054361410
C -2.1126561291 -2.2285624833 0.9153115562
C -1.9720040369 -1.8609571673 -0.5669769053
C -1.5374900962 -0.3954153355 -0.7310975748
C -0.0856697649 -0.1323404579 -0.3181246977
N 0.1866814583 1.3040209566 -0.2244526879
C 0.0619687139 2.1089031550 -1.3734987706
C 0.1729770384 1.5833649998 -2.6646820769
C 0.0038314011 2.3970608127 -3.7804844723
C -0.2398579186 3.7574015191 -3.6304148917
C -0.3048292670 4.3035994900 -2.3518463622
C -0.1756730902 3.4859088383 -1.2343556524
S -0.3707977879 4.1511922797 0.4025778432
C 0.8370623199 3.1384847379 1.2227989999
C 0.9656322320 1.7913520777 0.8396826670
C 1.8737908193 0.9838931742 1.5250495869
C 2.5985511443 1.4827933339 2.6148752711
C 2.4555710395 2.8171973400 2.9927644980
C 1.5930634918 3.6400001922 2.2720036191
S 3.6759158822 0.3236244783 3.4224917008
C 4.5131532432 1.3447035815 4.6766218424
H -0.4953873714 -1.5140229907 -2.8405197725
H -1.9200725339 -2.5224838548 -3.1853550324
H -0.2887900472 -3.2396134981 -3.1431288036
H -0.7635500578 -4.8236226967 -1.6109068642
H -2.4715978139 -4.3431564063 -1.5745962504
H -1.9121929344 -5.6413578812 0.4333903370
H -0.5922421653 -4.5340352355 0.8365340013
H -2.6073900617 -3.9235402334 2.1713063899
H -3.5658761574 -3.8092686675 0.6937334969
H -2.8290988868 -1.5391457494 1.3765278972
H -1.1505517048 -2.0857715339 1.4223879641
H -2.9836556927 -1.9470439030 -1.0243718915
H -2.1855222611 0.2191084150 -0.0956269591
H -1.7129224944 -0.0550924107 -1.7556427522
H 0.0708009748 -0.5421367997 0.6802867204
H 0.6197010859 -0.6557763370 -0.9798262002
H 0.3967748032 0.5320470179 -2.8004420307
H 0.0789300681 1.9615789514 -4.7715078065
H -0.3650385971 4.3949021798 -4.4987585887
H -0.4733249914 5.3668224996 -2.2135218010
H 2.0364434098 -0.0400124578 1.2071855837
H 3.0067012109 3.2328185672 3.8261140752
H 1.4881787698 4.6839524317 2.5503131293
H 5.0692725179 2.1641008942 4.2131962187
H 3.8060975192 1.7323619899 5.4148295484
H 5.2175925155 0.6779105290 5.1791032361
