54
CONF90
C 2.0308062087 0.8999372767 -2.6425974518
C 1.5927825222 1.6938832102 -1.4150457883
C 2.4729151193 1.3572461492 -0.2435968613
C 3.1750756817 0.1456148671 -0.2151113184
C 3.9869587587 -0.1844305391 0.8716844885
C 4.1093869765 0.6850023949 1.9468156637
C 3.4152977768 1.8831257368 1.9041730766
C 2.6140897942 2.2317649497 0.8350329433
F 3.5179074327 2.7402336076 2.9530948315
O 3.1506492996 -0.7709575900 -1.2377397125
C 2.1970391543 -0.5735606204 -2.2990401517
C 0.8829672937 -1.2667874532 -1.9251478387
C 1.0987239546 -2.7559962415 -1.6494729607
N -0.1894012588 -3.4642499040 -1.5542591925
C -0.9492586781 -3.2006605453 -0.3158161116
C -2.0922869460 -2.2289342434 -0.6057491298
C -2.9401749088 -1.9413361671 0.6333856740
C -4.0996428726 -0.9932981306 0.3596488291
C -3.5724533902 0.3535051566 -0.1325669771
C -2.4005702894 0.8062907739 0.7007133399
C -1.7362235885 -0.0909010158 1.5475640088
O -2.0883756650 -1.4131679271 1.6677901318
C -0.6788974308 0.3328844259 2.3550646018
C -0.2565200128 1.6530520269 2.3234565391
C -0.8986965494 2.5255992318 1.4596316078
C -1.9534407344 2.1297644832 0.6609433951
F -0.4767934076 3.8157569338 1.3964269623
O -2.9734979094 -2.7766335958 -1.5858210547
O -0.0049719124 -1.0804318514 -3.0233662995
H 2.9968781315 1.2748717932 -3.0004393713
H 1.3089098677 0.9920700857 -3.4574205951
H 1.6357057660 2.7692649848 -1.6158757900
H 0.5452044139 1.4709437482 -1.1676222845
H 4.5212412337 -1.1282076961 0.8555592315
H 4.7334555753 0.4464767431 2.8003531817
H 2.0863150368 3.1803031358 0.8434271720
H 2.6235638203 -1.1058559122 -3.1579622730
H 0.4756612590 -0.7878972724 -1.0156624296
H 1.6559650065 -3.1880540649 -2.4909796915
H 1.7106329692 -2.8641706020 -0.7406405953
H -0.0236921240 -4.4559418419 -1.6558682648
H -0.3071934307 -2.7978224311 0.4804910254
H -1.3870779894 -4.1394726745 0.0472412172
H -1.6658554239 -1.2810570637 -0.9711055375
H -3.3118225718 -2.8907846155 1.0356958709
H -4.6531258184 -0.8622340945 1.2965141912
H -4.3643431900 1.1090317954 -0.0909513495
H -0.1982178368 -0.3880603041 3.0073639038
H 0.5619482854 2.0004641847 2.9424048199
H -2.4390878963 2.8540274847 0.0139843241
H -2.4040556391 -3.1891216714 -2.2511694606
H -4.7725274524 -1.4444451434 -0.3732046105
H -3.2747481559 0.2787156491 -1.1869568538
H -0.5704177974 -1.8677507640 -3.0393068013
