38
CONF22
O 1.1096724065 -1.4307443579 1.2728519696
P 1.1515517566 -1.0229224390 -0.1425685396
O 1.2805891900 -2.1746908686 -1.2540015092
C 0.3271402968 -3.2057805556 -1.2274938497
C -0.6403524450 -3.2204968594 -2.2220521621
C -1.5668722874 -4.2586524445 -2.2381624195
C -1.5206129147 -5.2558496914 -1.2676303391
C -0.5432288084 -5.2168846146 -0.2767093034
C 0.3932794741 -4.1877913367 -0.2488037704
O 2.4093562761 -0.1461281451 -0.6349617260
C 2.4901534744 1.1828047137 -0.1992932049
C 2.5669647362 1.4869403964 1.1541707085
C 2.6456683434 2.8248541244 1.5307529887
C 2.6585047743 3.8317380999 0.5698658919
C 2.5933863367 3.5013428361 -0.7815641652
C 2.5043673898 2.1700052934 -1.1750414109
O -0.1266176373 -0.1757363374 -0.6506684711
C -1.0728631225 0.3404055533 0.2453714732
C -1.9870536961 -0.5111169816 0.8470858625
C -2.9536563077 0.0349181924 1.6852651541
C -2.9981780554 1.4087298665 1.9085609994
C -2.0694189665 2.2428045506 1.2925456985
C -1.0942215276 1.7112082420 0.4540605615
H -0.6567104700 -2.4277837922 -2.9613282475
H -2.3276897660 -4.2841361009 -3.0113054204
H -2.2457486557 -6.0624990140 -1.2834728734
H -0.5057757717 -5.9914863817 0.4821411409
H 1.1553328908 -4.1299566200 0.5193566983
H 2.6988878186 3.0768278821 2.5847631276
H 2.7229321752 4.8713937264 0.8726313329
H 2.6060511002 4.2817768282 -1.5353647822
H 2.4387248764 1.8860167979 -2.2192578273
H -1.9288045161 -1.5791210304 0.6651867039
H -3.6730586253 -0.6192355608 2.1668631369
H -3.7546995885 1.8280295141 2.5632985178
H -2.0980885576 3.3136535785 1.4654888088
H -0.3539267692 2.3396357964 -0.0301526294
H 2.5485284266 0.6899100698 1.8887726928
