28
CONF2
C 3.5488011415 -0.5955812216 -1.0479653250
C 3.8325455088 -0.8614577542 0.3794397199
C 2.3773633315 -0.8632942217 -0.1029054132
C 1.5369223199 0.2603299909 0.2793387889
C 0.1524774126 0.1831744652 0.6003866530
C -0.5386166066 1.4256215368 0.8351204428
O 0.0747664045 2.5306429924 0.8509900463
C -2.0158613851 1.4439485288 1.0998931212
C -2.7288592553 0.2717875147 0.4447030863
C -2.0764596831 -1.0323745113 0.9156442137
C -0.5684648855 -1.0839417259 0.7305528818
O -0.0255422397 -2.1906687183 0.7447898174
C -2.6970284461 0.3971684455 -1.0657104885
O -2.1242975968 1.2709663668 -1.6843045332
O -3.3948799098 -0.5898171721 -1.6592315143
O 2.1228672577 1.4266029808 0.2860772758
H 3.6549682745 0.4214169335 -1.4072212980
H 3.7365359273 -1.3823241336 -1.7702333919
H 4.1236863573 -0.0243113691 1.0040276242
H 4.2212853127 -1.8321963049 0.6661966439
H 1.8884930672 -1.8214007800 -0.1691406416
H -2.4085419935 2.4098367197 0.7748125805
H -2.1564123970 1.3792852874 2.1876236355
H -3.7847188905 0.2582958467 0.7379279389
H -2.5003974167 -1.9102229499 0.4228919860
H -2.2671316571 -1.1448552829 1.9915135094
H -3.3404910607 -0.4685303205 -2.6229516208
H 1.3569906158 2.1218988728 0.5553204598
