15
CONF6
O 1.8321178692 1.3846058082 -0.1922993727
P 1.4222543316 0.0312184064 0.5325456889
O 2.7303426432 -0.8193561850 0.2369204629
O 0.9303003845 0.1034143968 1.9372360079
C 0.0290150657 -0.6713236786 -0.4970806138
Cl 0.4058979088 -0.6260213460 -2.2544557332
Cl -0.2800555691 -2.3606125843 0.0377511229
P -1.4409526126 0.4388013787 -0.1782869151
O -1.9090708640 0.0948282931 1.3005308735
O -2.6796113366 -0.1449307303 -0.9823765770
O -1.0081088307 1.8335821331 -0.4749599310
H 1.0500490035 1.9600119636 -0.3296685155
H 2.8391906059 -1.5892519183 0.8183828968
H -1.1614951087 0.1611434895 1.9309764521
H -2.7598731892 0.2038907741 -1.8852156298
