47
CONF75
C -0.3764660853 0.3873814562 2.9210514151
C -0.1393955860 1.4196140592 1.8430128638
C 0.7218518173 2.6341590311 2.1184415512
C 1.2878839327 1.4868501097 1.2897986986
C 1.4957573579 1.6761619103 -0.1515579315
O 1.1071517323 2.5914558752 -0.8432838913
O 2.1821030780 0.6028082109 -0.6611889919
C 2.2354865204 0.5589040675 -2.1041969562
C 3.2402972569 -0.4570342833 -2.4231528000
N 4.0120655149 -1.2632979189 -2.7191761200
C 0.8915447049 0.1943542392 -2.7080069437
C 0.0634560152 -0.7006178474 -2.0305031827
C -1.1754210555 -1.0322079962 -2.5669683135
C -1.5470850855 -0.4648396858 -3.7903789902
C -0.7309740846 0.4167110293 -4.4683220296
C 0.5047835025 0.7542564665 -3.9202450518
F -2.7531559010 -0.7910086946 -4.3037386901
O -2.0917503923 -1.8527042754 -1.9718900414
C -1.6785603713 -2.6265410796 -0.8848059612
C -0.7694236445 -3.6616041426 -1.0714021437
C -0.4286721295 -4.4564322438 0.0191154056
C -0.9976011883 -4.2187038783 1.2700056273
C -1.9131240876 -3.1818654933 1.4317482212
C -2.2584565450 -2.3733450000 0.3501351378
C 1.3049606360 2.8971453956 3.4363662223
C 1.3846514476 4.0947452616 4.0165005980
Cl 0.7998256905 5.5709543200 3.2978304625
Cl 2.0959581992 4.3195687981 5.5945675851
C -1.3150031577 1.6062350911 0.9119334809
H -1.1927455789 0.7123366329 3.5757443169
H 0.5086746355 0.2036787942 3.5329333595
H -0.6711096619 -0.5604636165 2.4575694984
H 0.4531256111 3.5075537068 1.5323309478
H 1.9937056443 0.8193297783 1.7726747309
H 2.5784864958 1.5214923839 -2.5029606310
H 0.3695507737 -1.1234029757 -1.0801084476
H -1.0684036306 0.8377149816 -5.4092526985
H 1.1525761317 1.4565148083 -4.4342120138
H -0.3393253911 -3.8362381925 -2.0525446792
H 0.2791027859 -5.2686460754 -0.1125758503
H -0.7299728399 -4.8439378765 2.1154348182
H -2.3610541011 -2.9949796583 2.4025628164
H -2.9669497565 -1.5585276354 0.4553109380
H 1.7117667315 2.0614996426 3.9978968936
H -1.5312557742 0.6697242031 0.3852841692
H -1.1400109596 2.3893348908 0.1723269038
H -2.1988488956 1.8759135101 1.4995258102
