40
CONF4
C 4.0612142281 0.1175734631 1.0278032938
O 3.8659851935 -1.0483109885 1.8637851167
C 2.7348027036 -1.7431285302 1.7099922549
C 2.5398552447 -2.8578344233 2.5146061420
C 1.3425444563 -3.5421159750 2.3127574592
N 0.4258946109 -3.1711020295 1.4123611639
C 0.7314370145 -2.0847133175 0.7017808032
N 1.8383241844 -1.3460642405 0.7959073839
N -0.2407567162 -1.7123047900 -0.2228168685
C -0.2965325069 -0.6432102408 -1.1035159565
O -1.3047455436 -0.4175700584 -1.7609022570
N 0.8517555452 0.1208182197 -1.1883678103
S 0.8211486734 1.6432830400 -1.9373903795
O 2.0654668881 2.2665158050 -1.4778587630
O 0.5709394150 1.4758609686 -3.3707890027
C -0.5472444019 2.4659303900 -1.2261562896
C -0.7202815453 2.8674616043 0.0968519545
N -1.9138209944 3.4154297596 0.3241028175
C -2.5524493708 3.3656820590 -0.8622998739
N -1.7546559916 2.7750602214 -1.8499865113
C -2.2039288989 2.5918070726 -3.1295667495
C -3.4653932217 3.0133593626 -3.4468084272
C -4.2905896187 3.6257369697 -2.4813531378
C -3.8388844207 3.8031416710 -1.1947588023
Cl 0.4320710976 2.6645448550 1.3616834207
O 1.1213225128 -4.6214646107 3.0710715339
C -0.1191330411 -5.3418929172 2.8748548908
H 3.2753870456 0.8559077096 1.2105226546
H 4.0744562402 -0.1654457126 -0.0283038823
H 5.0305709846 0.5158461078 1.3247314723
H 3.2688444846 -3.1733065894 3.2486117919
H -1.0753635015 -2.2848644688 -0.2228225312
H 1.5787706023 -0.0507322548 -0.4727182147
H -1.5259330409 2.1184379543 -3.8238458929
H -3.8167632324 2.8651652641 -4.4605307514
H -5.2860126292 3.9551567811 -2.7568648102
H -4.4430155843 4.2647519875 -0.4228603400
H -0.1819928952 -5.7240754976 1.8532563196
H -0.0788969042 -6.1642159411 3.5882288419
H -0.9743960660 -4.6951181776 3.0843130355
