45
CONF68
C -7.7810672272 -0.3696564426 -0.6163932541
C -8.1981322187 1.1015602305 -0.7173474078
O -7.7368209365 1.9031959194 0.3732486517
C -6.4142901719 -0.7331299950 -1.1515327705
C -5.1923402408 -0.1092900764 -0.4107131361
C -3.8122565948 -0.7924372642 -0.7127605579
C -2.5799624709 0.1073751070 -0.3384231467
C -1.2392979568 -0.7030714033 -0.2143078524
C 0.0373079556 0.2096167159 -0.2966222903
C 1.3276669852 -0.4901019476 0.2645439314
C 2.6544783752 0.1964558135 -0.2207957996
C 3.9008638884 -0.1922442154 0.6541909604
C 5.2666375947 0.0913497804 -0.0658436729
C 6.4850462999 0.1316026651 0.9198520266
C 7.8736180594 -0.0326207918 0.2176252838
F 8.8392264696 0.2523707245 1.1007573118
F 8.0469222067 -1.2858813710 -0.2143080703
F 7.9715641475 0.8092457310 -0.8208290332
F 6.3641412962 -0.8644304105 1.8275938240
F 6.4872850064 1.3181799227 1.5629076811
F 5.1898504108 1.2859752805 -0.6951911788
F 5.4810929098 -0.8775753254 -0.9838357530
F 3.8614197479 0.5202712381 1.8019516817
F 3.8362184229 -1.5102702929 0.9464296490
F 2.8890093441 -0.1732322765 -1.4994494983
F 2.4943127734 1.5377068785 -0.1680320273
F 1.2883370900 -0.4498223262 1.6150339197
F 1.3360721668 -1.7788520225 -0.1423729939
F 0.2506362792 0.5365311468 -1.5907821254
F -0.1855934281 1.3363106503 0.4159965392
F -1.1817959002 -1.6103428960 -1.2144626270
F -1.2327906826 -1.3492977204 0.9733213451
F -2.8225083433 0.7142039449 0.8452616982
F -2.4257733662 1.0500905503 -1.2964758085
F -3.7374916786 -1.0857754277 -2.0298643823
F -3.7347144702 -1.9405150756 0.0006865069
F -5.1019977253 1.2046243339 -0.7667919012
F -5.4112103677 -0.1805588335 0.9230691369
F -6.2549290787 -2.0982319699 -1.0860574760
F -6.3145880513 -0.3807631058 -2.4717035055
H -8.4705551450 -0.9713483019 -1.2211306161
H -7.8623201358 -0.7128760557 0.4186475260
H -7.8952946684 1.5275653709 -1.6817628563
H -9.2906643837 1.1274092574 -0.6724590725
H -6.8817233014 2.2823622617 0.1429553885
