21
CONF4
C 0.7027026973 -1.2328039600 0.1366657494
C -0.1660816257 0.0334032872 0.1621916370
C 0.6793768258 1.3088726754 0.0221784186
O 1.2614738211 1.4845934303 -1.2851964147
C -1.2665976836 -0.0268517272 -0.9113791193
O -0.7770785578 -0.2512893080 -2.2458031219
C -0.9094972287 0.0881702484 1.5149335194
O -0.0577614807 0.3128246390 2.6437625643
O 1.5372657464 -1.3519168137 -1.0297819825
H 0.0544571682 -2.1181366947 0.2316612980
H 1.3933808611 -1.2229572491 0.9872071093
H 0.0393131458 2.1839865173 0.1838838761
H 1.4660646656 1.3147583875 0.7876594773
H 1.8466360723 0.7219440004 -1.4168951532
H -1.9374006064 -0.8663645898 -0.6952061489
H -1.8582790013 0.9006747681 -0.8782619946
H -0.1990508379 0.5039613328 -2.4413273326
H -1.6118772867 0.9293825887 1.4968320860
H -1.4918459529 -0.8352788421 1.6463236021
H 0.3667935622 -0.5212562818 2.8764948745
H 0.9280059923 -1.3557161018 -1.7859429388
