46
CONF120
C -2.6481997931 -1.6423891044 3.2815771068
C -3.4460219106 -0.5134282116 2.6630714746
O -2.6752992214 0.2421657565 1.6896979598
P -2.3426040234 -0.3467330246 0.2314961178
S -3.7110659541 -1.4677862141 -0.5719241652
N -1.8567641912 0.9568161092 -0.6428882866
C -2.3124388459 1.3030845805 -1.9984124921
C -1.3990686297 0.6883392599 -3.0588772423
C -2.3872079457 2.8231235762 -2.1232397832
O -0.9132918382 -1.0998483588 0.6434290976
C -0.0659127619 -1.5856792703 -0.3277147020
C -0.4136124888 -2.7292433941 -1.0417899104
C 0.4724238669 -3.2623240220 -1.9687853668
C 1.7215064815 -2.6794787322 -2.1665850427
C 2.0814026493 -1.5634626005 -1.4266774650
C 1.1906663183 -0.9877702590 -0.5122499745
C 1.5855135950 0.2489412057 0.2125705345
O 0.8488081034 1.1825481041 0.4733912124
O 2.8958318073 0.2315007983 0.5198925292
C 3.4365564022 1.4230000085 1.1851640244
C 3.1360555665 1.3393798738 2.6706387673
C 4.9182479567 1.4263996747 0.8686768052
H -2.4169500346 -2.4122835001 2.5408333288
H -1.7106666683 -1.2706336972 3.7039469520
H -3.2366664102 -2.1020870153 4.0825184305
H -4.3536860011 -0.8860067539 2.1746340665
H -3.7250313501 0.2331334487 3.4113552724
H -0.9396254748 1.3150177919 -0.3758323255
H -3.3176351960 0.8830761286 -2.1110354252
H -1.7456617243 0.9448257225 -4.0654423991
H -0.3739687453 1.0609460195 -2.9450782581
H -1.3818776359 -0.4015715467 -2.9639049090
H -3.0583237302 3.2417154267 -1.3688305552
H -1.3959229356 3.2717513139 -1.9893185031
H -2.7522990962 3.1056098720 -3.1153900934
H -1.3828607544 -3.1781525271 -0.8611038540
H 0.1872776688 -4.1459957186 -2.5305859812
H 2.4159867276 -3.1004497005 -2.8854383394
H 3.0566236429 -1.1091076518 -1.5582648316
H 2.9395635146 2.2954605541 0.7486104699
H 3.5490891488 2.2155744836 3.1796864132
H 2.0586431172 1.3148496809 2.8474014395
H 3.5922210607 0.4420527027 3.1001759071
H 5.0874334713 1.4623545194 -0.2107704289
H 5.3892581180 2.3034423274 1.3217607692
H 5.3995540433 0.5293227603 1.2696116663
