25
CONF1
C 3.7640550072 0.7067548398 0.2919566463
C 3.6779901051 -0.6389172059 0.6520221211
C 2.4455123547 -1.2790240212 0.6693470718
C 1.2870373308 -0.5778605318 0.3264428602
C 1.3729167317 0.7786920488 -0.0367678132
C 2.6172205806 1.4116184947 -0.0506364243
C 0.1615466463 1.5487278723 -0.4080318619
O 0.2355910436 2.7321854166 -0.7284514458
C -1.1429159845 0.8394422346 -0.3789762051
C -2.2949017701 1.5335539494 -0.7195619351
C -3.5315231625 0.8819887452 -0.6998742412
C -3.6271501870 -0.4510055494 -0.3443678750
C -2.4729850030 -1.1681025733 0.0030640579
C -1.2115376224 -0.5250122879 -0.0111297629
C -0.0152721425 -1.2720788935 0.3495777766
O -0.0798546798 -2.4762679472 0.6724561643
O -2.6066753471 -2.4561406396 0.3415615556
H 4.7284113856 1.2039897035 0.2790471405
H 4.5752221190 -1.1874354972 0.9191454254
H 2.3682354343 -2.3240138532 0.9473148664
H 2.6713244625 2.4572768361 -0.3325169558
H -2.2228174139 2.5780490090 -0.9986765538
H -4.4305587821 1.4278734092 -0.9670666561
H -4.5830722625 -0.9638655404 -0.3264852987
H -1.6857997440 -2.7804278187 0.5506075429
