36
CONF145
C 1.0491355206 2.7138730814 -3.2244212834
C 2.2984545110 2.0666966771 -2.6110546384
C 2.0510673834 1.5959665896 -1.2113296387
C 2.1209851702 0.3278844590 -0.8031754710
C 1.8293253633 -0.1351215922 0.5904384931
C 0.5825012524 -1.0488645799 0.6892232897
C -0.7134288602 -0.4289716848 0.1257321724
C -0.8777530575 -1.0654309300 -1.2770591559
C -0.2998909199 -2.4767456899 -1.1430002563
C 0.7883446028 -2.3394489746 -0.1005413889
O 1.6994351964 -3.1249735300 0.0870579115
C -1.9199855345 -0.7356705652 1.0115099480
C -1.8446311620 -0.0698788900 2.3619163791
O -1.1134573323 0.8568882514 2.6515510678
O -2.7238820344 -0.6159591219 3.2235280980
C -2.7776508877 -0.0068452861 4.5383628487
H 0.7113223601 3.5605413315 -2.6173238953
H 0.2284770218 1.9912075524 -3.2809095400
H 1.2540277025 3.0812106020 -4.2348172853
H 3.1129032540 2.8041075296 -2.6105688141
H 2.6279541507 1.2241311712 -3.2302359408
H 1.7677146640 2.3648045648 -0.4885001622
H 2.3953083610 -0.4437268113 -1.5267755321
H 1.6693474194 0.7279151880 1.2454488430
H 2.6824393161 -0.7021110098 0.9853033036
H 0.4769614527 -1.3285345669 1.7457452062
H -0.6106740756 0.6572103949 0.0401739879
H -0.2881313511 -0.4968391844 -2.0029267821
H -1.9186548505 -1.0596698228 -1.6115792634
H 0.0861818031 -2.9170502044 -2.0661367016
H -1.0430266788 -3.1763873454 -0.7333723290
H -2.8415585060 -0.3739069912 0.5350501918
H -2.0551508257 -1.8139142329 1.1568010540
H -1.8057837519 -0.0872094679 5.0309237179
H -3.5326887673 -0.5691006769 5.0862273476
H -3.0655376031 1.0439231676 4.4556578118
