88
CONF96
C 1.7899223218 1.1181587464 1.2036988328
C 0.2881327218 1.3191418695 0.9868068394
C -0.5072032437 0.2525122492 1.7263015776
O -1.9183391012 0.3890027966 1.4259294442
C -2.6196041484 1.2663909681 2.1951373986
O -2.1230240282 1.9200582852 3.0926983635
C -4.0361582744 1.3386297785 1.8311075507
C -4.5929700693 0.6693804720 0.8039554526
C -5.9831718661 0.6997034204 0.3850636615
C -6.9632339585 1.4286350211 1.0733053576
C -8.2764854268 1.4329489726 0.6198591324
O -9.2932803742 2.1128413835 1.2094849608
C -8.9869999145 2.8578439315 2.3843444486
C -8.6421378271 0.7000024437 -0.5295089112
O -9.9523821715 0.7054102365 -0.8870372151
C -10.2689219921 1.0843329846 -2.2383307977
C -7.6616802326 -0.0493758554 -1.1991131141
O -8.1038235474 -0.7735392611 -2.2671602027
C -7.1441155379 -1.5522400313 -2.9764694169
C -6.3427442723 -0.0381994723 -0.7506919517
C -0.1179092010 -1.1598926653 1.3117151338
O -0.7503843304 -2.1210337570 2.1551830139
C -1.8576541739 -2.7883527345 1.5581440606
C 1.3883598279 -1.3594927850 1.4805088055
C 1.7705373648 -2.7412113701 0.9968662228
O 1.1853564149 -3.3874626116 0.1577446476
O 2.9194128587 -3.1523716323 1.5845725556
C 3.3897497106 -4.4483251857 1.1596404674
C 2.2427966093 -0.2851253920 0.7669072266
C 2.2056694708 -0.3999819390 -0.7589034176
C 3.0092654968 0.7107470054 -1.4390126219
N 2.5633577672 2.0385535339 -0.9693129749
C 3.3465995574 3.0912822430 -1.6331974736
C 4.8533751698 3.0854100856 -1.2829257726
C 5.3481070405 1.6774268151 -1.2233519609
C 4.4989493834 0.6031449863 -1.2753497578
N 5.2364916643 -0.5681002706 -1.1741284757
C 6.5713266709 -0.2530522825 -1.0418171795
C 6.6760031009 1.1609607549 -1.0665729765
C 7.9483894399 1.7352805900 -0.9457779869
C 9.0534091663 0.9179829598 -0.8065171340
C 8.9198345026 -0.4855367171 -0.7852495715
O 10.0986222744 -1.1688747952 -0.6429444623
C 10.0315088978 -2.5866694621 -0.6168869835
C 7.6749708387 -1.0969416282 -0.9026037173
C 2.6412511433 2.1679814750 0.4912036646
H 1.9922241084 1.2172568010 2.2801447873
H -0.0128762895 2.3040824840 1.3584860561
H 0.0431469320 1.2864546724 -0.0800000950
H -0.3748043650 0.3554079345 2.8099360575
H -4.6053925103 2.0045994536 2.4703676020
H -3.9399387689 0.0377793303 0.2060174669
H -6.6892839962 1.9961649740 1.9515414243
H -9.9279491226 3.3108552607 2.6986367989
H -8.6107648754 2.2060605575 3.1833509797
H -8.2529008402 3.6476169911 2.1774449895
H -9.5799215070 1.8593643510 -2.5926390540
H -10.2294519448 0.2232758127 -2.9103558052
H -11.2834792063 1.4871638175 -2.2032645747
H -6.3561145766 -0.9206766690 -3.4062875886
H -7.6963829713 -2.0410945087 -3.7800224415
H -6.6931848216 -2.3145795044 -2.3285327011
H -5.5798914090 -0.6106268036 -1.2633847290
H -0.4036212138 -1.3311977056 0.2639914328
H -1.5471671878 -3.3181007314 0.6466594689
H -2.2126583510 -3.5159465694 2.2920603337
H -2.6722476973 -2.0901055696 1.3243428237
H 1.6126908162 -1.3066696302 2.5533582480
H 4.3174247267 -4.6157658131 1.7065044724
H 3.5666868709 -4.4589432572 0.0804007697
H 2.6526040832 -5.2173920546 1.4043078637
H 3.2829045243 -0.4205539115 1.0935549648
H 1.1763520021 -0.3434297401 -1.1252905855
H 2.5821565278 -1.3776289666 -1.0835557935
H 2.7697228899 0.6684178785 -2.5139489425
H 2.9043654530 4.0623771572 -1.3805829436
H 3.2292207073 2.9498958594 -2.7151528662
H 5.0314501851 3.5961960204 -0.3255453904
H 5.3965293642 3.6655885450 -2.0398959510
H 4.8576500313 -1.4983114145 -1.1718618486
H 8.0697402537 2.8142053695 -0.9607658470
H 10.0507592808 1.3324175992 -0.7110515801
H 11.0590746224 -2.9347434540 -0.5005324726
H 9.4294347960 -2.9446377979 0.2299475874
H 9.6170062035 -2.9862633652 -1.5529413320
H 7.5548594839 -2.1732462726 -0.8886130527
H 2.2847712854 3.1728353128 0.7524968682
H 3.6780807040 2.0769130841 0.8633597719
