42
CONF42
C 4.2629951782 0.1424226422 -0.3882993881
C 3.5313106874 1.2334733879 0.3924341216
C 4.1588784713 2.6080581460 0.1533516133
C 2.0580908231 1.2956774269 0.0083081920
O 1.3838760725 0.0325711021 0.2449170495
C 0.9068610890 -0.1586520771 1.4934105752
O 1.0678840864 0.6054775910 2.4184363699
C 0.2209364119 -1.4778669210 1.6098934121
C 0.4848945568 -2.2274037702 2.7559996688
C -0.0383319707 -3.5067048382 2.8972493327
C -0.8283240814 -4.0497434997 1.8880538611
C -1.1108052260 -3.3032967934 0.7507208515
C -0.6054024563 -2.0111463309 0.6093258838
C -1.0448921965 -1.2421479707 -0.5908657956
O -1.1487027577 -1.7168905421 -1.6995209954
O -1.3809693740 0.0229825262 -0.2601462545
C -1.8163247972 0.8718631105 -1.3537447113
C -3.3054011788 0.7137579330 -1.6368720455
C -3.6778489590 1.6110569355 -2.8185803950
C -4.1428050644 1.0415450444 -0.4013307934
H 4.2413979795 0.3571401842 -1.4635471281
H 3.8048763295 -0.8377296594 -0.2308011401
H 5.3110878918 0.0832185441 -0.0791671466
H 3.5814401255 1.0071707334 1.4649097068
H 4.0939817733 2.8874706356 -0.9052044917
H 3.6618275487 3.3853064849 0.7426384304
H 5.2172860090 2.6004570357 0.4293283209
H 1.9476780275 1.4658044542 -1.0682445853
H 1.5395228248 2.0824382046 0.5649240623
H 1.1181722454 -1.7956669718 3.5236136286
H 0.1784297673 -4.0829909556 3.7905989797
H -1.2323536092 -5.0515150683 1.9901889934
H -1.7396747132 -3.7035335810 -0.0373664703
H -1.2203689554 0.6384095734 -2.2415136420
H -1.5950410296 1.8892649455 -1.0130711382
H -3.4755510843 -0.3318523228 -1.9226882383
H -3.4892979336 2.6651236062 -2.5816209684
H -4.7405581441 1.5108618685 -3.0575737001
H -3.1045688955 1.3547336492 -3.7153030999
H -3.8680290943 0.4088038739 0.4469403547
H -5.2077096416 0.8949149301 -0.6062799986
H -3.9984663284 2.0871375213 -0.1035013826
