71
CONF72
C 4.9301377831 -0.7701739295 -1.0753670356
C 5.8439035994 -1.3153285748 -0.0139055653
C 5.3810311105 -1.5142114506 1.2992378960
C 6.2119880387 -2.0416600810 2.3016129534
C 7.5397716398 -2.3269968245 1.9681816145
C 8.0200769028 -2.1202926263 0.6809479535
C 7.1711403629 -1.6282571474 -0.3059244581
C 5.7028490319 -2.3357747326 3.6828022520
N 4.0238161030 -1.2108581317 1.5816700742
C 3.5877865321 -0.2963433241 2.4860985767
O 4.3176291964 0.3678117555 3.2205005468
C 2.0651705379 -0.1890542503 2.5693213201
N 1.3972593134 -0.5610687720 1.3282348514
C 0.0064431698 -0.9812028986 1.5343692508
C -0.6009669697 -1.4192148983 0.2112468058
N -0.5576612811 -0.3291053853 -0.7648500139
C 0.8277502703 0.1001443443 -0.9618549801
C 1.4339060438 0.5419236724 0.3591771696
C -1.1933208770 -0.7336712779 -2.0211665158
C -1.5062788619 0.4372751043 -2.9528322898
C -2.3719989015 1.5485427465 -2.3524642917
C -3.8154303154 1.1232687876 -2.0158410903
C -3.9570467742 0.3331989250 -0.7206942720
C -3.4991842001 0.8506024919 0.4940457389
C -3.6675582634 0.1528988724 1.6854111337
C -4.3069549399 -1.0749744629 1.6418535633
C -4.7845293822 -1.6240896107 0.4661957948
C -4.6052343209 -0.9036633700 -0.7140116808
F -4.4701395881 -1.7663646646 2.8030271444
C -4.7775434914 2.3023840619 -1.9654152556
C -4.3919844844 3.5576309664 -1.4865760205
C -5.3029951252 4.6085711013 -1.4028398797
C -6.6066150333 4.3811151541 -1.8063781031
C -7.0337280882 3.1562749909 -2.2895108558
C -6.1059135157 2.1212301495 -2.3624327385
F -7.5024261620 5.4022839658 -1.7297984726
H 5.4652392523 -0.6579540697 -2.0206229663
H 4.0718464609 -1.4299661039 -1.2499615212
H 4.5287217430 0.2071924138 -0.7864246017
H 8.1948646128 -2.7360773640 2.7323126018
H 9.0529336051 -2.3545535296 0.4421850799
H 7.5402353614 -1.4746683376 -1.3159939574
H 4.6849637141 -2.7372170433 3.6517628632
H 5.6671590364 -1.4261245454 4.2907169230
H 6.3521797886 -3.0606706559 4.1792434340
H 3.2942440208 -1.5571924052 0.9636509296
H 1.7516275503 -0.8754874130 3.3675096257
H 1.8253006850 0.8332707656 2.9071884558
H -0.0107283337 -1.8196986278 2.2397908428
H -0.6026975379 -0.1606447574 1.9596941453
H -1.6481388335 -1.7011991795 0.3742191129
H -0.0584050799 -2.3145914356 -0.1556933878
H 1.4462511538 -0.7152113238 -1.3921567188
H 0.8555014657 0.9435292610 -1.6599155090
H 0.8798772563 1.4195602213 0.7441759181
H 2.4752147978 0.8455984702 0.2014772708
H -2.1259848817 -1.2473037337 -1.7638624051
H -0.5659857891 -1.4682871937 -2.5652578120
H -0.5732585635 0.8838741990 -3.3169228645
H -2.0086581914 0.0270560091 -3.8388268167
H -1.8771523257 1.9593343663 -1.4654544404
H -2.4292083623 2.3618673302 -3.0857698457
H -4.1614779671 0.4694628004 -2.8266916559
H -3.0011637902 1.8147182646 0.5195315242
H -3.3105182968 0.5479000696 2.6304808183
H -5.2810114554 -2.5884506796 0.4743226413
H -4.9712932512 -1.3210858254 -1.6480531947
H -3.3674821940 3.7322062171 -1.1748302057
H -5.0089013553 5.5856463888 -1.0347119677
H -8.0635802693 3.0210372997 -2.6021032191
H -6.4236632665 1.1512796403 -2.7356217243
