29
CONF3
C -2.8402175898 -2.0961893051 -0.0490597966
C -1.3455753299 -1.8850086376 0.0959720044
N -0.9150321809 -0.4664992176 0.0003035125
C -1.7797550736 0.5420982698 -0.2299662825
C -1.4205985486 1.8614127199 -0.3280604457
C -2.5164109921 2.8450763591 -0.5852146760
O -2.1223279944 4.1181278397 -0.6735353621
O -3.6766018770 2.5101925139 -0.7043342407
C -0.0429375534 2.2554807823 -0.1852232606
O 0.3519194207 3.4388172293 -0.2618980218
C 0.8836258844 1.1512034309 0.0621615264
C 2.2566967171 1.3727403586 0.2218800056
C 3.0959166714 0.3061567248 0.4517044391
C 2.5536858345 -0.9912040061 0.5212487307
C 3.4395691360 -2.1750544939 0.7712305218
N 1.2507758556 -1.2235353980 0.3720798401
C 0.4412443531 -0.1812017113 0.1497568987
H -3.0324372600 -3.1676657440 0.0511579355
H -3.4130732428 -1.5848287323 0.7298879336
H -3.2166006601 -1.7856338039 -1.0278857521
H -0.9955755164 -2.2643563409 1.0604043692
H -0.8013065637 -2.4429714067 -0.6722168380
H -2.8271857960 0.2917827983 -0.3435388974
H -1.1308092779 4.1411768870 -0.5415013953
H 2.6189846948 2.3934457220 0.1579581449
H 4.1636701260 0.4506259112 0.5791057967
H 4.2073008819 -2.2519428503 -0.0060355001
H 2.8522472725 -3.0933754849 0.7850638612
H 3.9608079101 -2.0688705042 1.7286575371
