70
CONF56
C -2.6769285720 -0.4156378430 -0.4816980159
C -4.0930875683 0.1628878472 -0.7208767689
C -5.0610723622 -0.9526972139 -0.9462892836
C -6.2541027370 -1.0753792594 -1.6163736345
N -6.7058393170 -2.3876143854 -1.5079364571
C -5.8018899527 -3.1269901996 -0.7794533905
C -5.7396255729 -4.4673192078 -0.3899991114
C -4.6204420244 -4.8510429468 0.3447403571
C -3.5861309017 -3.9531032748 0.6952577648
C -3.6525753720 -2.6163804054 0.3176459973
C -4.7705677614 -2.2360851369 -0.4208531645
C -2.6679229442 -1.5086248948 0.6335250329
C -1.2586036940 -2.0467165097 0.8835751443
C -0.3007516854 -0.9019223222 1.1759146515
C -0.3689426349 0.1024307422 0.0242955388
N -1.7237306024 0.6492050028 -0.1028105335
C -1.6969732466 1.7766128848 -1.0528781739
C -0.8125576258 2.8857355954 -0.5655397660
C 0.0923363861 3.5162751193 -1.3107631094
C 1.1251402118 -1.4007879977 1.3714256115
O 1.4175442916 -2.5877441341 1.2450956028
N 2.1183599452 -0.4657183073 1.6028171932
C 3.5228215334 -0.9294544695 1.5360875216
C 3.9769625844 -1.3806801915 0.1441089195
C 3.6181610755 -0.4353946098 -0.9955576196
N 4.0742596120 0.9518885805 -0.8094427881
C 5.5355728844 1.0517958984 -0.7569474303
C 3.5446043561 1.7858582872 -1.8937068552
C 1.8332273235 0.8684335790 2.0674020115
O 0.9553304903 1.0863531879 2.9033173173
N 2.6199269313 1.8137037532 1.5334357033
C 2.5031069879 3.2030762968 1.9659357734
C 3.6259763557 4.0355544584 1.3669209276
H -2.3472618307 -0.9042076808 -1.4235042266
H -4.3723645347 0.7631053584 0.1578134703
H -4.0940485672 0.8330575250 -1.5843842856
H -6.8327510476 -0.3481257735 -2.1692582584
H -7.5548884021 -2.7370379486 -1.9207234344
H -6.5156507473 -5.1816765499 -0.6457811319
H -4.5355922604 -5.8864581767 0.6612835259
H -2.7441508892 -4.3313386406 1.2658040626
H -3.0108974394 -1.0057545847 1.5528361525
H -1.2687089512 -2.7512641077 1.7202263560
H -0.9187148557 -2.6005470107 -0.0006979557
H -0.6147028342 -0.3852981909 2.0877415717
H 0.3158043744 0.9387299246 0.1878379030
H -0.0469233187 -0.3989218341 -0.9129098944
H -1.3849188182 1.4611311536 -2.0678751386
H -2.7094511772 2.1851830861 -1.1332481237
H -0.9744723729 3.1904811255 0.4692505169
H 0.2766083271 3.2247589824 -2.3423803815
H 0.6725631305 4.3454081174 -0.9162363421
H 3.6407375579 -1.7647401803 2.2351481746
H 4.1457750232 -0.1085869492 1.8961545190
H 5.0596693190 -1.5432519857 0.1932754850
H 3.5284828314 -2.3502332626 -0.0894882703
H 2.5260669417 -0.4016480301 -1.1008929012
H 4.0168388586 -0.8514143832 -1.9402734828
H 5.8213001308 2.1025885071 -0.6461788987
H 6.0117740854 0.6551566913 -1.6718705672
H 5.9267237037 0.5019340903 0.1034507516
H 2.4494648800 1.7600154865 -1.8729161350
H 3.8699302754 2.8223120555 -1.7595584107
H 3.8847711157 1.4412918639 -2.8865434852
H 3.2177918094 1.5744265224 0.7152605887
H 1.5260512793 3.6076586846 1.6661173127
H 2.5390791609 3.2377872075 3.0612121382
H 4.6049444703 3.6476198518 1.6666235144
H 3.5454814775 5.0699948858 1.7107923203
H 3.5740514239 4.0373459345 0.2735186720
