22
CONF1
Cl 5.2667642656 -0.1059552585 0.5491617856
C 3.5452114394 -0.0622660749 0.3312732249
C 2.7808441820 0.7154404801 1.1931047102
C 1.4022736238 0.7627588963 1.0331192643
Cl 0.4782185660 1.7737887510 2.1178655844
C 0.7583008931 0.0436716129 0.0223341554
C 1.5450092386 -0.7279821166 -0.8326299747
C 2.9248068296 -0.7889599558 -0.6892322539
Cl 3.8470895630 -1.7716150054 -1.7846473524
C -0.7117669827 0.0657167443 -0.1536626348
C -1.5277431886 -0.5954606718 0.7641716074
C -2.9091216362 -0.6133246799 0.6238304504
Cl -3.8681067804 -1.4578865794 1.7998480529
C -3.5013478281 0.0448148985 -0.4581313553
Cl -5.2234706960 0.0503836092 -0.6754569056
C -2.7074437878 0.7125237437 -1.3832085322
C -1.3278459001 0.7185034679 -1.2250450794
Cl -0.3662763692 1.5933878511 -2.3922498939
H 3.2625720850 1.2836329640 1.9785645362
H 1.0695046740 -1.2927471719 -1.6263491696
H -3.1669944715 1.2282830625 -2.2166555610
H -1.0743246224 -1.1068779651 1.6055558047
