44
CONF248
C -3.0037495944 -3.1802807823 -2.1381546245
S -3.0041670867 -2.9043956684 -0.3565675528
O -2.7403233683 -4.2016570515 0.3002313225
O -4.2195520226 -2.1572773693 0.0282182728
C -1.5352811948 -1.8571266957 -0.0657805888
C -1.5368166331 -0.4751960245 -0.3068680261
C -0.3489829026 0.2049508507 -0.0075089373
C 0.7827932369 -0.4435968486 0.4844134532
C 0.7296206068 -1.8150944682 0.7257401831
C -0.4257246163 -2.5256336716 0.4409616991
C 2.0732028397 0.2606098048 0.7843474562
O 2.5457547356 0.2246713698 1.9023716472
C 2.8013559261 0.8607922790 -0.4189474969
C 3.9569767737 -0.1164163242 -0.7599753113
O 3.8455682905 -0.8551979861 -1.7138937350
C 5.1586329549 -0.0381996297 0.1338044585
C 5.6409343359 1.4128274752 0.2864515103
C 4.5230395142 2.3395256669 0.7946466776
C 3.3491773410 2.2706358249 -0.1342771353
O 2.8646938115 3.2240420627 -0.7067960230
Cl -0.2745227051 1.9461070040 -0.1831700713
C -2.7225304601 0.2925995838 -0.8241631135
O -3.3320194161 0.9370148875 0.3094317005
C -4.1714101766 2.0229035367 -0.0192145645
C -5.5722757556 1.5714499512 -0.4020672927
F -5.5883647872 0.8239976565 -1.5348770727
F -6.3669749849 2.6472817389 -0.6213669920
F -6.1509504063 0.8282062856 0.5664727038
H -3.1079804874 -2.2248158798 -2.6559630509
H -2.0661346550 -3.6748322360 -2.4011588475
H -3.8611037510 -3.8286476318 -2.3407139708
H 1.6021923301 -2.3214114868 1.1247737458
H -0.4706984874 -3.5926577542 0.6214150963
H 2.1330824784 0.9008513029 -1.2796380138
H 4.8671660959 -0.4218347631 1.1211030927
H 5.9392737695 -0.6835952995 -0.2742736230
H 6.0140971793 1.7792781863 -0.6763388856
H 6.4730166159 1.4378238276 0.9941217876
H 4.8605612687 3.3756324656 0.8635847002
H 4.1995080814 1.9955229297 1.7851808199
H -2.3839905085 1.0476459766 -1.5451174545
H -3.4377694233 -0.3626147644 -1.3218742189
H -4.2677546988 2.6474433496 0.8741901716
H -3.7715689627 2.6286688166 -0.8442765941
