51
CONF94
C -0.1220300118 -1.9235617878 2.0958860006
N 0.0715564761 -2.2804146207 0.6840907556
C 0.3977966361 -3.7090309974 0.5395577030
C -0.7678344472 -4.6447869300 0.8844102775
C -2.0032922581 -4.2879169245 0.0530501505
C -2.3278153506 -2.7923967050 0.1447813965
C -1.0822782082 -1.9587434402 -0.1900855594
C -1.3473835552 -0.4531643082 -0.2455228853
C -0.3872915332 0.2541272287 -1.2152440470
N -0.2658406960 1.6778583420 -0.9133151027
C -0.2561646365 2.6236334789 -1.9584031815
C 0.0662117004 2.2873037865 -3.2777887587
C 0.0096974210 3.2439891892 -4.2875015001
C -0.3235975101 4.5609181850 -3.9956501231
C -0.5918335325 4.9217760453 -2.6783835410
C -0.5751083664 3.9621992658 -1.6724284176
S -1.0249195275 4.3971776312 -0.0076230764
C 0.1026543501 3.3170671806 0.8395434670
C 0.3448333492 2.0448335215 0.3034161378
C 1.1837578382 1.1649492690 0.9940902018
C 1.7620309982 1.5423812274 2.2070668570
C 1.5164540834 2.8137353122 2.7330832516
C 0.6998638662 3.6961575246 2.0373561573
S 2.7949316623 0.4466765910 3.1533671752
C 3.3728766428 -0.7424980747 1.8918312920
H 0.7290663936 -2.3018438895 2.6714382225
H -1.0361874263 -2.3292192609 2.5581630513
H -0.1320785376 -0.8383619957 2.2254097061
H 1.2704648085 -3.9316957659 1.1662509987
H 0.6990385973 -3.8776181388 -0.5046908739
H -0.4702584932 -5.6841608933 0.7010208537
H -1.0009040259 -4.5705265591 1.9538659520
H -2.8648144879 -4.8897417285 0.3635678805
H -1.8067376222 -4.5382434985 -0.9994957682
H -3.1311604446 -2.5384169950 -0.5570779225
H -2.6967349378 -2.5370460924 1.1461326094
H -0.7667960567 -2.2697626076 -1.2016661414
H -1.2744035418 -0.0089183943 0.7503745748
H -2.3746928131 -0.2734006795 -0.5803227882
H 0.5893596917 -0.2547896365 -1.2211105685
H -0.7956860002 0.1663718854 -2.2241065859
H 0.3733530119 1.2771962405 -3.5219304166
H 0.2485390349 2.9541308656 -5.3054804883
H -0.3594513398 5.3086675125 -4.7802083829
H -0.8314620913 5.9495944021 -2.4251993903
H 1.3616093365 0.1751219219 0.5953371657
H 1.9769048748 3.1191982280 3.6665515817
H 0.5188464441 4.6915687778 2.4302489337
H 2.5604837717 -1.3665676125 1.5086161192
H 3.8620698093 -0.2152443947 1.0683518849
H 4.1043554363 -1.3785616973 2.3963755591
