22
CONF1
C -0.7695528223 -0.0153343287 0.0088097013
C -1.4824323036 0.7837615573 0.9036197333
C -2.8794830480 0.7858078305 0.9124682587
C -3.5733562520 -0.0276550367 0.0081079152
C -2.8719021368 -0.8349965025 -0.8959030312
C -1.4749251427 -0.8206053144 -0.8863813698
Cl -0.5821846794 -1.8093069670 -1.9951910900
Cl -3.7263435485 -1.8375838546 -2.0125910990
Cl -5.2999303233 -0.0351863448 0.0076068903
Cl -3.7432914011 1.7808552309 2.0287009762
Cl -0.5990382026 1.7802556307 2.0129429599
C 0.7120126985 -0.0089106128 0.0093984871
C 1.4246666796 -0.9017871979 0.8108443291
C 2.8217110570 -0.9047572578 0.8198414686
C 3.5158285168 0.0037111432 0.0111667534
C 2.8145911529 0.9059183348 -0.7983788457
C 1.4176188068 0.8902917236 -0.7911928596
Cl 0.5251434910 1.9963955143 -1.7831817502
Cl 3.6692941425 2.0277375789 -1.7950025067
Cl 5.2423975705 0.0113737990 0.0121379245
Cl 3.6852637639 -2.0187577398 1.8176356724
Cl 0.5410135475 -2.0159471745 1.8016860324
