47
CONF9
C 4.0157273870 -1.5424223668 4.0983384564
C 3.9158565898 -1.6789852482 2.6301886545
C 2.9646211862 -1.3095261261 1.7123036444
C 3.5082022071 -1.7454546218 0.4587892465
N 4.6781357092 -2.3239326793 0.6158893847
O 4.9298324463 -2.2905115914 1.9988874726
C 2.9551130448 -1.6048188740 -0.8983297704
C 2.9022658374 -2.7095535257 -1.7532517483
C 2.3609835556 -2.5782021265 -3.0270933357
C 1.8664621555 -1.3499195138 -3.4562277386
C 1.9282995662 -0.2419761894 -2.6144686816
C 2.4763535427 -0.3660780337 -1.3436347799
C 1.6793393278 -0.6861958724 2.0774994133
O 1.5196687929 -0.1008652592 3.1437541204
N 0.6670587572 -0.8383413164 1.1635946722
C -0.5816856736 -0.1608614031 1.3055094294
C -0.8286149139 1.1326780896 0.4470846076
N -1.8451319557 0.3880710849 -0.2989080201
C -1.7653765139 -0.7552758714 0.5009015254
O -2.4050640837 -1.7728961346 0.5111492288
C -3.0207548039 1.1067531518 -0.7194778579
C -3.3712527805 2.0990403364 0.4527893238
S -1.7104497845 2.5727446713 1.1848982092
C -4.0823260007 3.3693045022 -0.0060775706
C -4.2145850090 1.3573234321 1.4920984030
C -2.7384481368 1.8230306600 -2.0300489055
O -1.6593986549 2.2263857353 -2.3843263062
O -3.8728597316 1.9662437078 -2.7577932818
H 4.3167414746 -0.5229533582 4.3603456533
H 4.7508186332 -2.2465451832 4.4930223626
H 3.0388420837 -1.7086335394 4.5560832370
H 3.2799644058 -3.6647916343 -1.4055011830
H 2.3176748512 -3.4409328906 -3.6837378143
H 1.4342142890 -1.2540041918 -4.4467702569
H 1.5508218296 0.7193363572 -2.9475458280
H 2.5447017305 0.4986503578 -0.6903657456
H 0.8688328200 -1.2894649184 0.2829919053
H -0.8111639372 -0.0104392589 2.3636809227
H 0.0200916861 1.4780433827 -0.1487536133
H -3.8493583196 0.4046848421 -0.8601504169
H -4.2859020105 4.0121565738 0.8548570915
H -5.0402716170 3.1162012224 -0.4722365235
H -3.4788535154 3.9388241560 -0.7175183705
H -5.2052066809 1.1304710213 1.0794466897
H -3.7466393323 0.4186276400 1.7993053946
H -4.3433047769 1.9773544959 2.3827655494
H -3.6339763701 2.4576564879 -3.5605316541
