25
CONF11
C -1.5750011253 1.8683438211 0.7478558175
Si -1.3232286171 0.3242641524 -0.2815122314
C -1.6188865226 -1.2074288300 0.7566503509
C -2.4507647282 0.3386499694 -1.7731240745
O 0.2351652471 0.3085790417 -0.8622951544
Si 1.7457235431 -0.0674542000 -0.3371677277
C 2.0592069978 0.6593588795 1.3527709384
C 2.0049238089 -1.9144963215 -0.3471710601
O 2.7157059710 0.6602019663 -1.4805513626
H -1.3565740209 2.7684550987 0.1622342548
H -0.9242782113 1.8688625616 1.6293196558
H -2.6127470313 1.9341126677 1.0947090754
H -2.6486601269 -1.2216258659 1.1320278785
H -1.4611348314 -2.1183132576 0.1682197830
H -0.9466170823 -1.2397815325 1.6218343949
H -3.5016126312 0.3639636842 -1.4635887217
H -2.2992324972 -0.5562091871 -2.3868840635
H -2.2606748547 1.2183002326 -2.3981375273
H 1.3842279047 0.2233380502 2.0982558260
H 1.9061172138 1.7440962446 1.3455794517
H 3.0877843234 0.4614194700 1.6755269577
H 3.0480610245 -2.1626953833 -0.1199306037
H 1.3728631557 -2.4025016966 0.4030233553
H 1.7591425338 -2.3356214736 -1.3281906079
H 3.6604903610 0.4841820034 -1.4094547058
