53
CONF212
C 1.0150922466 3.5684299892 -0.0671651706
C 2.0744855568 2.4834762363 -0.2935630749
C 3.4651052213 3.1116717902 -0.0978434604
C 1.9768143809 1.9756810490 -1.7424735053
O 0.7036683044 1.3606619824 -1.9161395705
C 0.6411992611 0.4538509757 -3.0099945956
C -0.6284589254 -0.3470723402 -2.8951404375
C -1.0736098402 -0.7576205151 -1.6374203175
C -2.2438337712 -1.5027591380 -1.5384828629
C -2.9617193592 -1.8775141057 -2.6703891443
C -2.4979459690 -1.4836035444 -3.9215500731
C -1.3454561772 -0.7104286956 -4.0364931752
O -2.7082606189 -1.9807264656 -0.3235223026
C -2.7649739582 -1.1542049171 0.7804500457
C -2.8739925370 0.2329340370 0.6954198954
C -2.9989704689 0.9743207445 1.8679452287
C -3.0249094230 0.3468925851 3.1113567030
C -2.9254603292 -1.0425594875 3.1779210984
C -2.7912316676 -1.7970093589 2.0178684389
C 1.8854308036 1.2743891216 0.6237087135
C 0.7560036029 1.1135282699 1.4297346816
C 0.5563831024 -0.0441751276 2.1762208043
C 1.5063691190 -1.0473659598 2.1226407231
C 2.6629075017 -0.9177942439 1.3664575337
C 2.8316596847 0.2409609744 0.6169980590
O 1.2469825646 -2.1798309018 2.9245117965
C 1.3385941013 -3.4140083118 2.4044364285
F 0.8073553917 -4.2662418281 3.2914934625
F 2.6177450728 -3.8091371340 2.1848330428
Br 0.3632101374 -3.6265885629 0.6664704392
H 0.0047307031 3.2030366742 -0.2670801244
H 1.2096505583 4.4071248390 -0.7431436233
H 1.0545658332 3.9446256954 0.9602462505
H 4.2725618321 2.4024037746 -0.2989240146
H 3.5722018155 3.4718253695 0.9299203148
H 3.5872450352 3.9639596854 -0.7744073254
H 2.0998172891 2.8169100946 -2.4443626196
H 2.7776502924 1.2464194356 -1.9375813978
H 1.5123714187 -0.2232549830 -2.9798971465
H 0.6687605010 0.9878357619 -3.9726019540
H -0.5183111230 -0.4840827704 -0.7461287567
H -3.8675740429 -2.4639937255 -2.5597814024
H -3.0528620002 -1.7655674854 -4.8108006826
H -1.0032419532 -0.3845795442 -5.0143435221
H -2.8644217956 0.7293284219 -0.2682959821
H -3.0831515135 2.0548142501 1.8014368720
H -3.1224908751 0.9334099630 4.0188441825
H -2.9449422764 -1.5457471536 4.1397623983
H -2.7098685884 -2.8780024659 2.0550380386
H -0.0072149466 1.8808395984 1.4701390642
H -0.3377147058 -0.1750473818 2.7762472301
H 3.4157924410 -1.6958047665 1.3480862853
H 3.7262628074 0.3256336976 0.0093392149
