57
CONF7
C 2.8693292630 1.3328497597 -3.4895719376
C 2.4611203785 0.3936239126 -2.3590098592
C 1.0291826308 -0.1978386785 -2.5170689261
C 0.3093274645 0.2426492835 -1.2427112216
C -1.0347853119 -0.3829886011 -0.8626915110
C -1.0662689281 -1.9114258636 -0.7403328819
C -2.4586737008 -2.4184283423 -0.3437409576
C -2.9403915255 -1.7242188006 0.8899890788
C -3.3398054584 -2.4013799800 1.9848908503
C -3.8497379130 -1.7445462562 3.1833338765
O -4.2319915322 -2.3939723276 4.1699942505
C -3.9025326933 -0.2838365917 3.1591608098
C -3.4612538835 0.4136005139 2.1000051476
C -2.9747095067 -0.2175269025 0.8329651336
C -1.5528312510 0.3181258861 0.4144118484
C -0.4906484539 0.2780631922 1.5399950554
C 0.8458696816 0.9008945059 1.1018773553
C 1.4069620338 0.2366522076 -0.1541981655
C 2.4920913879 1.0657730608 -0.9502034034
C 3.8720229953 1.0244804386 -0.3093204326
O 4.6786599736 0.1283520302 -0.5093337776
C 4.2449999780 2.1501507644 0.6310221252
O 5.4705729294 1.8893519993 1.2860409287
O 2.0498444071 2.4271033977 -0.9673706063
C 1.9848318862 -1.1415015255 0.2069983874
O -0.8849657685 1.0268921679 2.6938737692
F -1.7385501928 1.6913262642 0.1000368821
C -4.0302279215 0.2090116911 -0.2361254345
H 2.1319335303 2.1302041302 -3.6373418117
H 3.8503864769 1.7879926825 -3.3057484191
H 2.9347394144 0.7742528809 -4.4279172718
H 3.1882079245 -0.4218317706 -2.3180108774
H 1.0725331280 -1.2871664585 -2.6126795573
H 0.5320894756 0.1905567286 -3.4117983714
H 0.0810028851 1.3040309812 -1.3845544288
H -1.7348518361 -0.1126615885 -1.6642612880
H -0.7778082408 -2.3507031653 -1.7000288815
H -0.3506245818 -2.2705015661 -0.0001835759
H -2.4410498608 -3.4992042475 -0.1802965514
H -3.1610166093 -2.2236862720 -1.1648942578
H -3.3198728369 -3.4884778051 1.9969136837
H -4.3022402864 0.2140134396 4.0383798824
H -3.5111134998 1.4990460033 2.0985883660
H -0.3534827763 -0.7764628472 1.8159876839
H 0.6726886827 1.9666787962 0.9283740315
H 1.5380428121 0.8037459345 1.9459809450
H 3.4344677907 2.2917531991 1.3606918956
H 4.3028582506 3.0801490215 0.0445524066
H 5.8243448455 1.0832347434 0.8713795042
H 2.5346862451 2.8946092608 -1.6600344148
H 2.8921116101 -1.0217423851 0.8046902891
H 1.2877698139 -1.7113170416 0.8198987042
H 2.2340971479 -1.7444546770 -0.6691229553
H -1.4360825541 0.4657263987 3.2535318372
H -4.9932952101 -0.2371237266 0.0258793889
H -4.1344316656 1.2950565520 -0.2449058972
H -3.7535317423 -0.1262689379 -1.2359868078
