45
CONF23
C -3.2244442708 2.9259404937 0.8414879414
C -2.8769466186 1.4704230256 0.8167249313
N -3.4598838943 0.6021300594 0.0654739563
O -4.4284840212 1.1891132032 -0.7501827571
C -5.0566349030 0.1659430342 -1.5395964360
C -1.8230707553 0.9211906219 1.6942771243
C -0.9310453795 -0.0647483404 1.2312363169
C -0.0439114335 -0.6469892522 2.1433433119
C -0.0017012791 -0.2507144289 3.4712389567
C -0.8667990328 0.7452501656 3.9118455142
C -1.7690939910 1.3275795651 3.0321905965
O 0.7871569892 -1.7022579581 1.7842650906
C 1.7389022717 -1.5201279819 0.8234751042
N 2.3002114677 -2.6467607731 0.4249782858
C 3.2467082927 -2.5043004391 -0.5191856233
C 3.6031486644 -1.2698718863 -1.0511875781
C 2.9233875070 -0.1713389811 -0.5198286248
N 1.9935921561 -0.2764440762 0.4322669746
O 3.2407224915 1.0350981447 -1.0001837628
C 2.5382322272 2.1793303520 -0.4540900033
O 3.7914035815 -3.6728544262 -0.8869935911
C 4.8156523137 -3.6461538156 -1.9026633722
C -0.8825412122 -0.4774647134 -0.2032059094
O -0.9374018311 -1.6303844099 -0.5853218029
O -0.6995177781 0.5763526974 -1.0107035504
C -0.6262107315 0.2720152843 -2.4252011548
H -2.5695745113 3.4793326985 1.5139874829
H -4.2665986179 3.0706321948 1.1460025280
H -3.1278310854 3.3387935298 -0.1684098770
H -5.5689547558 -0.5586826635 -0.8979171468
H -5.7823071518 0.6884380617 -2.1656477474
H -4.3183031352 -0.3445885831 -2.1674009807
H 0.7123594045 -0.7195138589 4.1393472312
H -0.8408030281 1.0599252219 4.9496678074
H -2.4632757114 2.0799500993 3.3907502234
H 4.3505659473 -1.1330319087 -1.8187817768
H 2.9302161878 3.0345542273 -1.0033660627
H 2.7492841208 2.2808625760 0.6133377818
H 1.4625274495 2.0765445484 -0.6138714769
H 4.4182296594 -3.2391162704 -2.8376809825
H 5.1084537347 -4.6857080951 -2.0434274132
H 5.6746133201 -3.0573232661 -1.5660642122
H -1.5576396227 -0.1946938258 -2.7563622057
H 0.2159292962 -0.3971980456 -2.6203149243
H -0.4783233315 1.2317286075 -2.9183080863
