56
CONF176
C -1.2992574968 -4.4967956327 -1.2176827475
C -0.5732424120 -3.8149183773 -0.0577329351
C -0.3434003638 -4.7404467541 1.1363685210
N -1.2472464564 -2.5675516297 0.3455385894
C -2.5535275157 -2.4396421424 0.7736771473
C -3.5160679094 -3.4038110669 1.0921404469
C -4.7572378665 -2.9622283834 1.5314183968
C -5.0467792833 -1.5920491194 1.6642133262
C -4.0976051671 -0.6333288632 1.3488271771
C -2.8409982345 -1.0488008708 0.8842559120
C -1.6601914076 -0.3382239871 0.5042231372
C -0.7083942074 -1.2962819674 0.1714611056
C 0.6583292215 -1.0872144612 -0.2752584545
C 1.0109906639 -0.0963128153 -1.1033659989
C 2.4217419360 0.2784655743 -1.4107517252
C 2.7418538656 1.6502092284 -0.8047273896
C 4.1875014809 2.0971499239 -1.0086082395
C 4.4786757355 3.4228972194 -0.3028847931
C 3.6078032788 4.5789633990 -0.7568967227
O 3.1257480347 5.3997357881 -0.0032630669
O 3.4130129389 4.6769189643 -2.0836652967
O 4.5013239404 2.2843501563 -2.4102619638
O 2.6642389209 0.2797589417 -2.8467696319
C -1.4806116529 1.1184685105 0.5532354034
C -0.4106930495 1.6934673045 1.2548969826
C -0.2238360504 3.0703956141 1.2862457650
C -1.1353979240 3.8712816708 0.6178332138
C -2.2203564687 3.3534160441 -0.0675339875
C -2.3840745877 1.9708475131 -0.0958901605
F -0.9594483052 5.2192975002 0.6418066782
H -0.6965170869 -5.3383513273 -1.5712670989
H -2.2767690874 -4.8838011894 -0.9204974475
H -1.4387008005 -3.7973122752 -2.0470934582
H 0.4060205588 -3.5036333662 -0.4307481759
H 0.2560089976 -5.5977019938 0.8163622148
H -1.2824005490 -5.1204946476 1.5460685241
H 0.1957608956 -4.2167320587 1.9309673377
H -3.3186522655 -4.4653469188 1.0148847872
H -5.5171991340 -3.6948915753 1.7843601332
H -6.0255732056 -1.2863697574 2.0203125364
H -4.3188939678 0.4243392082 1.4564807658
H 1.4350616043 -1.7327480576 0.1345429746
H 0.2446243412 0.5495695208 -1.5333543513
H 3.1127097802 -0.4714172232 -1.0084779296
H 2.0500698911 2.3967216841 -1.2202466600
H 2.5507294029 1.5984264780 0.2737257839
H 4.8626052330 1.3346436453 -0.5944745880
H 4.3602622149 3.3074398311 0.7760741428
H 5.5219236123 3.7040581645 -0.4989140873
H 3.8216890136 3.8803764655 -2.5124954266
H 4.0100102776 1.5886336481 -2.8906805464
H 1.9272360906 0.7451174089 -3.2689244829
H 0.2888206322 1.0491326922 1.7774679040
H 0.6061214116 3.5192917440 1.8216952881
H -2.9122006081 4.0168472695 -0.5752488029
H -3.2156004926 1.5461850470 -0.6497093194
