29
CONF2
C -4.8523348535 -0.2400928062 -0.0501690191
C -4.0353726034 -0.7473025558 -1.2146611865
O -2.6794195432 -1.1348982289 -0.8015078949
P -1.5515002858 -0.0580582199 -0.4896923939
S -1.5077264025 1.5657657793 -1.5491507946
O -1.6081477329 0.0817508435 1.0939894136
C -1.1967912140 1.2811800387 1.8402660330
C -2.4105973709 1.8977999226 2.4899767650
O -0.3162036756 -1.1304095409 -0.7729484815
C 0.9830556241 -0.8461475372 -0.5224411376
N 1.2972408724 0.2433530400 0.1533285019
C 2.5606244500 0.5226295252 0.4095405617
Cl 2.8683464128 1.9887140235 1.3067291264
C 3.6072027243 -0.2994680344 -0.0051111581
Cl 5.2684811892 0.0703577512 0.3373443732
C 3.2893246167 -1.4524761638 -0.7182075111
C 1.9614992504 -1.7350693702 -0.9865499882
Cl 1.5194608743 -3.1582168148 -1.8777127448
H -4.4595059471 0.7061806718 0.3321833875
H -5.8788127487 -0.0703612423 -0.3903418464
H -4.8724313343 -0.9726452390 0.7614706306
H -4.4474259381 -1.6700321311 -1.6269765604
H -0.4692454966 0.9246665358 2.5730383723
H -0.7026130425 1.9747975595 1.1562530637
H -3.1094556981 2.2693209886 1.7354707251
H -2.9246368349 1.1743820750 3.1289926695
H -2.0891580419 2.7408169092 3.1099325386
H 4.0729863990 -2.1178217910 -1.0612758002
H -3.9513071272 -0.0039611004 -2.0133146395
