65
CONF490
C -0.3626233896 3.1991357581 0.1140899879
C -1.6056705053 2.5639804830 0.7335832643
C -1.4755027368 2.2400624044 2.2427588012
C -1.2152836424 3.4751914787 3.0991336977
C -0.3949427888 1.1968064656 2.4367009297
O 0.7251721373 1.4100127825 2.8624124631
O -0.8252005700 -0.0129089855 2.0333233471
C 0.1259879326 -1.1263628048 2.0753933505
C 0.1554122912 -1.7493217390 3.4625419066
C -1.1907925871 -2.3449479469 3.9061255363
C -1.9180101774 -2.9731982849 2.7581449157
C -1.5570995708 -2.8848092915 1.4638726891
C -0.3243052530 -2.1250003304 1.0127063867
C -0.5504811599 -1.4935260781 -0.3793356962
C -0.9281922658 -2.5828998970 -1.4093180651
C -2.0366626840 -3.4456651593 -0.8801925854
C -2.3243188072 -3.5537916666 0.4266303945
C 0.2522217944 -3.4574952598 -1.8699702291
C 0.6343823161 -0.6324885080 -0.8276575433
C 0.4021423050 0.0685990461 -2.1660914443
C 1.5066606688 1.0421649841 -2.5308902502
C 1.2051682597 1.8595199472 -3.7693040366
C 2.4232871845 2.6654389553 -4.1802344194
C 3.5650749475 1.7054654449 -4.4864971602
C 3.7549452755 0.5931113698 -3.4840143221
O 4.7864527255 -0.0505038769 -3.4184915239
O 2.7352733759 0.2360227165 -2.6858750221
O 2.7514031068 3.5290821934 -3.0792252666
C -2.0947117075 -1.3366976181 4.6401144987
H -0.1460747844 4.1780286614 0.5518806961
H 0.5211544347 2.5668158198 0.2534101946
H -0.5041042860 3.3396747280 -0.9621531536
H -2.4631597597 3.2373098310 0.6173837579
H -1.8532642497 1.6391519014 0.2000183667
H -2.4197197493 1.7745673757 2.5507755977
H -1.2176442948 3.2184708780 4.1624218853
H -0.2486462041 3.9274519471 2.8658272663
H -1.9979496622 4.2190120522 2.9214719858
H 1.1151434119 -0.7290072827 1.8350369217
H 0.9104105486 -2.5440889112 3.4233097905
H 0.5047530141 -1.0110610369 4.1914350081
H -0.9703487341 -3.1422397476 4.6316394596
H -2.8185544880 -3.5358519683 3.0066634162
H 0.5020844043 -2.8471128695 0.9208746471
H -1.4264769811 -0.8351090729 -0.2938052321
H -1.3152351466 -2.0727458011 -2.3022609464
H -2.6175819189 -4.0081195290 -1.6090029013
H -3.1540154410 -4.1792287571 0.7522528426
H -0.1023981150 -4.2317247343 -2.5579325661
H 1.0117377874 -2.8674983840 -2.3924537929
H 0.7273636688 -3.9597305631 -1.0211903574
H 0.8158560296 0.1481814274 -0.0794701495
H 1.5461217986 -1.2403887452 -0.8698785894
H 0.2898547948 -0.6491447838 -2.9874297116
H -0.5320961507 0.6439331069 -2.1125757213
H 1.7123176606 1.7105331142 -1.6875517822
H 0.9079604722 1.2047103554 -4.5967178593
H 0.3657209154 2.5245385897 -3.5423639072
H 2.2011197350 3.2645595152 -5.0733517476
H 3.3726203610 1.2085475966 -5.4473348598
H 4.5196220598 2.2294998040 -4.5918941180
H 3.5094172295 4.0671147026 -3.3402824808
H -1.5773418946 -0.9277016769 5.5144814985
H -3.0113070113 -1.8270897487 4.9843887568
H -2.3771252473 -0.5092336839 3.9839434923
