26
CONF26
C -1.8833180731 0.7438774871 1.4185292728
C -1.7177661238 -0.0753828329 0.1422995632
C -0.2946732363 -0.5957430778 -0.0795471018
C 0.7633655213 0.5136506218 -0.0649188347
C 2.1602982166 0.1101666702 -0.5736570535
C 2.8680361349 -1.0244031829 0.1667963168
O 2.3651902321 -2.3087113315 -0.2126928737
O 2.0961644721 -0.1833123001 -1.9759500029
O 0.3075219271 1.6168936150 -0.8553734753
O 0.0361734145 -1.5352649048 0.9597759242
O -2.5426433676 -1.2512221387 0.2077854639
O -3.2774512904 0.9631695943 1.6899773254
H -1.4929742639 0.1897255268 2.2775361591
H -1.3455137504 1.6956485687 1.3310109490
H -2.0092387506 0.5359390081 -0.7232251630
H -0.2810984153 -1.1051073353 -1.0575341444
H 0.8689025388 0.8825217186 0.9632171604
H 2.7775719459 1.0126828344 -0.4732125838
H 2.7986622624 -0.8668049777 1.2519857901
H 3.9250812880 -1.0120586853 -0.1170631473
H 1.9590765998 -1.1419856036 -2.0398593233
H 0.4506466911 1.3605808718 -1.7793344437
H -0.7456556961 -2.1011282054 1.0629106915
H -3.3532337545 -0.9858256744 0.6680311817
H 1.4918605581 -2.3824062312 0.2182409008
H -3.6087681691 1.5974461518 1.0405847812
