126
CONF39
C -4.4011590804 3.3598822044 2.4081272334
C -3.9109762689 2.8696782943 1.0433146464
C -3.0720870080 1.5895071089 1.1894721089
C -3.9641431731 0.3548000990 1.3965153582
C -4.3522822144 -0.2768273040 0.0633155359
C -5.5624203847 -1.2037326242 0.1306500014
C -5.7979356447 -1.8154388863 -1.2475591411
C -4.5484977858 -2.5607092400 -1.7240950060
C -3.3422393633 -1.6057941520 -1.6948060298
O -3.2006429584 -0.9994170611 -0.4069895769
C -1.9982883573 -2.3661763059 -1.8117774089
O -1.2481354414 -2.1987025068 -2.7503338647
C -1.6923325734 -3.4461250708 -0.7659225514
O -2.2237661615 -4.5404020088 -0.9757258644
N -0.8584885299 -3.1608338971 0.2516149352
C -0.4068501402 -4.2498001558 1.1372535013
C -0.1836999195 -3.7448578651 2.5566781361
C 0.7584366680 -2.5432687913 2.5597610910
C 0.1574893023 -1.4295737492 1.7073156861
C -0.1197245395 -1.9025519156 0.2718124896
C 1.1557243895 -2.0358569895 -0.5663046032
O 1.5474950290 -3.0592713417 -1.0802659642
O 1.7484095295 -0.8372218960 -0.6819419355
C 2.8756683202 -0.7513500779 -1.5997941268
C 2.8753448727 0.6668795557 -2.1901994933
C 1.5801766600 1.0229205443 -2.9510632509
C 0.3770060272 1.4072649476 -2.0580407571
C -0.7178304428 1.9969322171 -2.9074484113
O -1.4213029992 1.2662278963 -3.6043097093
C -0.9527122750 3.4963410800 -2.8670336381
C -1.4797619499 3.7764037777 -1.4793960195
C -2.7621610280 3.7110205023 -1.0902001892
C -3.1345299864 3.9991587693 0.3396576343
C -3.8963392725 3.3709863255 -2.0142359161
C 0.3197116479 4.3158020410 -3.1795778123
C 0.0228273175 5.7834261052 -3.2009773029
C 0.1836188366 6.5697358694 -4.2634553536
O 1.2593226830 -0.0730092185 -3.8081305805
C 3.2573289232 1.7386009062 -1.1707063275
C 4.1791512455 -1.1049850454 -0.9222669138
C 4.2577533344 -1.2846251430 0.4003527909
C 5.4761175478 -1.6041429282 1.2107457842
C 5.2015449261 -2.7600743067 2.1866053653
C 6.4163873433 -3.0497109720 3.0684050966
C 6.8437530167 -1.8064800045 3.8321938651
C 7.1401065673 -0.6637304469 2.8705400619
C 5.9232717931 -0.3570307317 2.0002354571
O 7.5269414419 0.4530747958 3.6850431216
C 8.2539626410 1.4536352576 2.9744504624
O 8.0018077027 -2.1309032558 4.6123356886
C 5.3369381680 -1.1970477182 -1.8775324018
O -3.4744635933 -0.6667026992 -2.7137214029
C -4.7408080065 -3.2044437504 -3.0935454701
O -6.6587181998 -0.3931129718 0.5579875242
C -7.7895329429 -1.1493113800 0.9876661014
O -3.3496889991 -0.6592215665 2.1990298724
C -3.4501902717 -0.3872012437 3.5933160479
H -5.0743962814 4.2163821770 2.2988833142
H -3.5508138408 3.6719266422 3.0263555613
H -4.9405181521 2.5772617261 2.9516244964
H -4.7933627634 2.6367360277 0.4291746332
H -2.3941415542 1.7042876982 2.0441702518
H -2.4432230922 1.4327714284 0.3035656992
H -4.9037128953 0.6625529129 1.8782785802
H -4.5921320603 0.5338367486 -0.6417007847
H -5.3710052459 -1.9974092786 0.8727027105
H -6.6319718607 -2.5250416974 -1.2190879634
H -6.0612759645 -1.0160464745 -1.9521099873
H -4.3316609184 -3.3451923693 -0.9916529995
H 0.5267493498 -4.6637666588 0.7330074230
H -1.1681903772 -5.0310639123 1.1047918562
H 0.2246047195 -4.5680689063 3.1518620365
H -1.1457177838 -3.4584671321 3.0010072165
H 1.7394573422 -2.8395139920 2.1615384796
H 0.9199293951 -2.1802667464 3.5799189060
H -0.7991495600 -1.1110156552 2.1371529840
H 0.8118021320 -0.5548516138 1.6602476630
H -0.7353211193 -1.1331335642 -0.2091803728
H 2.6918057066 -1.4655309708 -2.4082669401
H 3.6516104410 0.6414133225 -2.9662605166
H 1.8332642520 1.9035013959 -3.5641720255
H 0.6980966168 2.1154344797 -1.2923100855
H -0.0123285331 0.5097800226 -1.5741602437
H -1.7087332737 3.7161936327 -3.6260386613
H -0.7215322755 4.0049596569 -0.7300728958
H -2.2330070678 4.2308662372 0.9209495302
H -3.7696247497 4.8973968319 0.3549891091
H -4.8006880887 3.9217254124 -1.7350066662
H -4.1398749296 2.3024588642 -1.9527322991
H -3.6634556692 3.5845571238 -3.0594775203
H 0.7305785882 4.0056585776 -4.1464577729
H 1.0764838783 4.1071452180 -2.4109145032
H -0.3611493348 6.2077470506 -2.2731829294
H 0.5597693442 6.1768442464 -5.2055347199
H -0.0521018033 7.6289780601 -4.2240222245
H 0.3467281843 0.0384408543 -4.1138931042
H 4.3002135120 1.6204168929 -0.8656390154
H 3.1406048961 2.7387325576 -1.6009698601
H 2.6385219019 1.6765698039 -0.2702937607
H 3.3496782998 -1.1629659681 0.9909707018
H 6.3044430308 -1.8996993502 0.5548591916
H 4.3417899881 -2.4913130555 2.8168330486
H 4.9193803126 -3.6588140178 1.6271031118
H 7.2586608926 -3.3864701180 2.4491521973
H 6.1951078164 -3.8513740381 3.7815565975
H 6.0243961010 -1.4843628939 4.4986417682
H 7.9936407026 -0.9568053318 2.2340651744
H 5.1009103487 -0.0182468540 2.6457841209
H 6.1499279588 0.4554221599 1.3014969551
H 7.6371672728 1.9404231606 2.2075535662
H 8.5623503593 2.2029641217 3.7071353325
H 9.1468061299 1.0258623405 2.4962063542
H 8.3344650145 -1.2927344431 4.9624554268
H 5.0260806039 -1.6630672242 -2.8194153085
H 5.7231964203 -0.2001343611 -2.1259862590
H 6.1637499670 -1.7774925836 -1.4656376964
H -2.6157626977 -0.2361303749 -2.8819463898
H -3.8322324739 -3.7182138227 -3.4244686202
H -5.0051275026 -2.4541346007 -3.8434577760
H -5.5460140191 -3.9436634612 -3.0435963180
H -7.5065924794 -1.8675451752 1.7706208083
H -8.5092682288 -0.4362495274 1.3960119914
H -8.2608456301 -1.6929075150 0.1584001448
H -2.9396628227 -1.2009255005 4.1145573643
H -4.5022033904 -0.3535520860 3.9133202653
H -2.9697605526 0.5642894269 3.8636637673
