38
CONF14
C -2.1367861181 -1.4242546976 -1.0321879173
C -1.3017465869 -0.1522796452 -1.2253283212
C -2.0459299566 1.0179770664 -0.6163832948
C -1.9088311842 2.4147154300 -1.1610362217
C -3.1763117968 1.6351417055 -1.3969032925
C 0.1634518713 -0.3387493265 -0.7093669681
C 0.9757703720 0.9371862669 -1.0066239272
N 2.3901255089 0.7833411077 -0.6959193634
C 3.3582575566 0.2362434724 -1.4560965536
N 4.5143615888 0.2341442960 -0.8011764339
C 4.1814349132 0.8044918230 0.3909656402
N 2.9064797243 1.1550271168 0.5029328332
C 0.2125353788 -0.7063624638 0.7723045940
C 0.4942431159 -2.0128476243 1.1752492260
C 0.5081962119 -2.3718843781 2.5207643083
C 0.2392725308 -1.4012225055 3.4742331093
C -0.0340014507 -0.0883183132 3.1129793834
C -0.0430689157 0.2475637602 1.7640383704
Cl 0.2557702415 -1.8389113734 5.1812110723
O 0.8096805020 -1.3385930543 -1.5081414705
H -1.6976307350 -2.3133803944 -1.4974606523
H -3.1192846309 -1.2778848191 -1.4892809902
H -2.2851809635 -1.6332634317 0.0322358120
H -1.1964485752 0.0405922810 -2.3028258551
H -2.2242440491 0.9358258588 0.4529019928
H -1.2535759636 2.5594319093 -2.0145044905
H -1.9337556986 3.2418073853 -0.4585089872
H -3.3510233590 1.2594503990 -2.4011938750
H -4.0693949410 1.9284752309 -0.8550627089
H 0.8904645430 1.1567565099 -2.0743641373
H 0.6005675503 1.7903770615 -0.4436372090
H 3.1787831261 -0.1290225331 -2.4579682302
H 4.8909508406 0.9742587466 1.1912982389
H 0.7183917079 -2.7762370478 0.4391221950
H 0.7284826852 -3.3916939354 2.8157558081
H -0.2283197150 0.6644371461 3.8686773955
H -0.2383967719 1.2807733069 1.5010693117
H 0.2267112364 -2.1031120670 -1.5917685921
