45
CONF12
C -0.6337748344 2.0853334358 -1.6741883234
C -1.6014744931 1.6000848943 -0.6440753490
C -1.8582587005 0.3122751604 -0.3871768441
C -2.8104899843 -0.1285542597 0.6428169703
C -2.4653539467 -1.3327782093 1.5760189433
C -3.5929579942 -1.4165733063 0.5730608652
C -3.5139011511 -2.3019284358 -0.6517685496
C -4.9781270365 -1.3825176662 1.1879473990
C -1.1354972429 -1.9341855820 1.4024002796
O -0.6922489368 -2.5099396050 0.4281828625
O -0.3766508221 -1.6918404288 2.5124117079
C 1.0378090722 -1.9881623361 2.3711227768
C 1.6679210153 -1.0403081656 1.3890359435
C 1.6457307667 0.3325970131 1.6175976166
C 2.1416950549 1.2344722892 0.6899516935
C 2.6917436215 0.8131467397 -0.5156947068
C 2.7368107901 -0.5588775342 -0.7319364509
C 2.2358295758 -1.4643138017 0.1930904847
F 2.3071211590 -2.7740463048 -0.0937155475
F 3.2701768822 -1.0363378422 -1.8709973382
C 3.2622565745 1.7870742150 -1.5021538760
O 4.6351177516 1.9963949865 -1.1634023539
C 5.2450328509 2.9259084263 -2.0624581288
F 2.0848555364 2.5480460539 0.9738356444
F 1.1204432628 0.8048829572 2.7620425023
H -0.1226270655 1.2526681759 -2.1669417152
H 0.1232495599 2.7370445922 -1.2204933110
H -1.1395358206 2.6864747755 -2.4400379688
H -2.1277165741 2.3651984063 -0.0711060706
H -1.3291980923 -0.4522613795 -0.9527077703
H -3.2925813917 0.6845073729 1.1815458075
H -2.7405991286 -1.1705376151 2.6132134909
H -2.5357617084 -2.2910430619 -1.1278610098
H -4.2637168080 -1.9684712183 -1.3776922125
H -3.7467840723 -3.3369332306 -0.3788687839
H -5.0121395705 -0.7329443401 2.0675248080
H -5.2840127810 -2.3901375854 1.4908847467
H -5.7037658660 -1.0110062154 0.4562397245
H 1.4459961055 -1.8415424362 3.3722603543
H 1.1807817642 -3.0234622091 2.0592056061
H 2.7082596385 2.7351027718 -1.4568452977
H 3.1755343835 1.3850538714 -2.5210986772
H 5.2132188570 2.5527260284 -3.0959030903
H 4.7430383103 3.9028629853 -2.0187837200
H 6.2845522881 3.0368473484 -1.7478160269
