56
CONF37
C 1.3265158361 -0.3051262105 0.6430251410
C 2.1248353779 0.5344967444 1.6692019095
C 1.9688854960 0.0961655571 3.1221420771
C 3.5713332202 0.5862676870 1.2065445971
C 3.8275876475 0.7922795507 -0.1726050125
C 5.1612317081 0.9490502556 -0.6287088168
O 5.4479697046 1.2039891993 -1.9197510900
C 6.2250572568 0.8231411763 0.2673290896
C 5.9577024816 0.5857675663 1.6036838151
C 4.6452385623 0.4811310051 2.0790242920
C 2.7213321213 0.8555863706 -1.1142971778
O 2.9157301567 1.3088289033 -2.2968260552
C 1.4279576794 0.3820360932 -0.7045899995
C 0.3668540524 0.5393231983 -1.5647082648
O 0.4904326197 1.0683241573 -2.7697371830
C -1.0374376542 0.1406128992 -1.1909295933
O -1.7363503117 -0.2590020970 -2.3665669411
C -1.8025039032 1.3902782110 -0.6563497202
O -1.5002351304 2.5061847615 -1.0864378868
C -2.8750260509 1.1592459135 0.2909049740
C -3.6880342321 2.2554086316 0.8470852669
N -3.5001119112 3.5022413893 0.4243527756
O -4.5707284713 1.9953578082 1.7254341387
C -3.1402237367 -0.1233750135 0.7680902174
O -4.0315078690 -0.3384014404 1.6909341676
C -2.4224759078 -1.3486580968 0.2675657471
N -3.1396871308 -1.9582195431 -0.9009366607
C -2.7798877275 -3.3817513615 -1.0199197149
C -4.6050355741 -1.8253291608 -0.8521795042
C -0.9891601183 -0.9807239361 -0.1479551156
C -0.1231079156 -0.5897965172 1.0612119789
O -0.1900711320 -1.6147871746 2.0551050257
H 1.8230594689 -1.2874496732 0.5566538024
H 1.7316583777 1.5619077996 1.5897964540
H 2.5191699689 0.7729273685 3.7816967645
H 0.9206425187 0.1266195600 3.4204819090
H 2.3380481526 -0.9223525113 3.2787156364
H 4.5761296129 1.3301278814 -2.3762571500
H 7.2402576709 0.9249634397 -0.1012520120
H 6.7841282808 0.4904457033 2.3016412195
H 4.4834778004 0.3186187045 3.1366312763
H 1.4800275884 1.2703876275 -2.8685409690
H -2.3956884192 -0.9500618930 -2.0390633429
H -4.0599592056 4.2449572348 0.8153721141
H -2.7754567768 3.6822678280 -0.2614193456
H -4.4388256580 0.6497238315 1.8797031384
H -2.4020617987 -2.0559494827 1.1084250089
H -3.1539867444 -3.9640069802 -0.1627163075
H -3.2207535374 -3.7798024452 -1.9380177996
H -1.6961043667 -3.5028442033 -1.0799589249
H -4.8942372131 -0.7709950841 -0.8722240071
H -5.0412308968 -2.3000822283 0.0400241674
H -5.0159230715 -2.3083787755 -1.7426907475
H -0.5190514499 -1.8519639131 -0.6222833736
H -0.5424922270 0.3039861333 1.5423615733
H 0.2120924000 -2.4135923490 1.6856850332
