34
CONF82
C -4.3524331921 -0.9924942532 1.7438920851
C -4.0442055294 -1.1019022903 0.2711068864
O -2.5808261756 -1.1222625891 0.0814213997
P -1.8462770877 0.1044115565 -0.6089752420
S -2.1763613806 0.4897713513 -2.4766368032
O -2.0804158970 1.2774812127 0.4463503439
C -1.7655114009 2.6802695448 0.1381354893
C -0.2752429451 2.9301979565 0.1609068660
O -0.2646456890 -0.3676762286 -0.4562837305
N 0.1326809468 -0.5650204831 0.8763407858
C 1.4052803520 -0.7870162038 0.9641800560
C 1.8086035216 -0.9426883021 2.3353529596
N 2.1660930477 -1.0764987287 3.4271087120
C 2.4556182095 -0.8699781593 -0.0643738603
C 3.7426459500 -0.4197843143 0.2674843560
C 4.7644119136 -0.4713535074 -0.6707730642
C 4.5211466915 -0.9974414645 -1.9373095539
C 3.2514305496 -1.4714122183 -2.2621383614
C 2.2162604495 -1.4058860936 -1.3387965789
H -3.8973434752 -1.8184648086 2.2970196786
H -3.9884244962 -0.0455475755 2.1506124745
H -5.4372065530 -1.0383650224 1.8833847539
H -4.3979645036 -2.0431647585 -0.1553282372
H -4.4735241626 -0.2733529652 -0.3017538552
H -2.2819844309 3.2362533954 0.9226970115
H -2.2101589242 2.9253550990 -0.8314509687
H -0.0964184880 4.0026103617 0.0351143776
H 0.2319916935 2.4033497687 -0.6529868789
H 0.1575524789 2.6152571123 1.1147069614
H 3.9382300387 -0.0156844373 1.2558954433
H 5.7522827913 -0.1067681954 -0.4098032476
H 5.3217976087 -1.0457867124 -2.6682710536
H 3.0640286121 -1.8973211867 -3.2422886691
H 1.2388892696 -1.7890861566 -1.5986289346
