52
CONF69
C 3.8832787030 0.5044548021 0.1642051020
N 3.1236504889 -0.7082760683 0.4521703577
C 3.3599826445 -1.1739532231 1.8234266148
C 2.6987875608 -2.5289205327 2.0553886094
C 1.2046080411 -2.4588457204 1.7415596004
C 0.9935081266 -1.9095196559 0.3300243962
C 1.6873011306 -0.5548991839 0.1430334762
C 0.9613323740 0.5755019720 0.9267578315
C 0.4083199000 1.6639843640 0.0052873893
N -0.5105099434 1.1127947592 -1.0015517943
C -0.4947063082 1.6318948335 -2.3107615805
C -0.0138441754 2.9147090141 -2.6008226135
C 0.0225179019 3.3743308727 -3.9151810782
C -0.4551378334 2.5856373099 -4.9573714712
C -0.9775460708 1.3247728813 -4.6778782179
C -0.9797640031 0.8483615354 -3.3707864563
S -1.5314095050 -0.8095022079 -3.0236493233
C -2.2694989273 -0.5077135208 -1.4358780362
C -1.6553085149 0.4228001417 -0.5773272464
C -2.2032466019 0.6115513836 0.6963937598
C -3.2838656908 -0.1608643733 1.0947948106
C -3.8993027272 -1.0765305310 0.2510294126
C -3.3889833845 -1.2310914106 -1.0353416064
S -3.9284355921 0.0681676556 2.7818101870
O -3.3570134505 1.3915308924 3.3013454322
C -2.9171400377 -1.2509771664 3.5630484885
H 3.6444008562 1.3523091443 0.8334645343
H 4.9544804514 0.2970945586 0.2668663320
H 3.6900076162 0.8233042152 -0.8667316486
H 2.9912198430 -0.4470021307 2.5760636405
H 4.4445386251 -1.2518934340 1.9693444741
H 2.8657675685 -2.8427538709 3.0922006258
H 3.1748539883 -3.2737848550 1.4039500393
H 0.7097685049 -1.8083764512 2.4760248937
H 0.7426543609 -3.4482495422 1.8349024043
H 1.4058070625 -2.6191251958 -0.3988963712
H -0.0753498382 -1.7972750767 0.1114619493
H 1.6371516467 -0.2994728705 -0.9253385049
H 0.1613173855 0.1571597712 1.5438751739
H 1.6456542393 1.0717865803 1.6232805979
H -0.0569488747 2.4761824216 0.5834102606
H 1.2463775580 2.0985409436 -0.5455320684
H 0.3310520941 3.5601424786 -1.8013900908
H 0.4143325991 4.3661548464 -4.1170117168
H -0.4330494159 2.9472797887 -5.9797981310
H -1.3644205363 0.6983240371 -5.4757679644
H -1.7948146235 1.3429296645 1.3842945579
H -4.7560836475 -1.6575829430 0.5775756659
H -3.8495126871 -1.9320267605 -1.7244113945
H -1.8630760435 -1.0261014968 3.3769655208
H -3.1448164115 -1.2342264110 4.6317176026
H -3.1988874109 -2.2127353301 3.1257541927
