45
CONF36
C 3.4499170280 0.4671570549 -4.0542051351
C 2.8877526317 1.4477481574 -3.0273855274
C 2.6347094934 0.7911313191 -1.6717186786
C 2.0628536695 1.7656981039 -0.6394329036
C 1.7622377419 1.1584520773 0.7396987641
C 0.3582283257 0.5390232646 0.8907759373
C 0.1203940069 0.1074485459 2.3503777580
C -1.2276041526 -0.5690990236 2.6090012638
C -2.4392749126 0.2962403691 2.2671755156
C -3.7647818913 -0.3742696303 2.6265579397
C -4.9768532916 0.4771703547 2.2563130171
C 0.1249387558 -0.5912808307 -0.0850278249
C 0.8164107238 -1.8010906595 0.0351413730
C 0.6410619519 -2.8198379041 -0.8933844574
C -0.2346418715 -2.6501704308 -1.9637919650
C -0.9380600417 -1.4570358771 -2.0888627943
C -0.7605965608 -0.4410838392 -1.1529965369
H 3.6167553762 0.9473335174 -5.0233115198
H 2.7604462290 -0.3705045293 -4.2063925949
H 4.4054490483 0.0513922048 -3.7164461658
H 3.5764809462 2.2945848107 -2.9041983128
H 1.9454146234 1.8705818342 -3.4009303507
H 1.9581740235 -0.0590081307 -1.8097146482
H 3.5762030865 0.3738545596 -1.2864795645
H 2.7780393847 2.5895754750 -0.5158263363
H 1.1464211738 2.2232644047 -1.0399201569
H 1.8536429113 1.9383953145 1.5066120423
H 2.5199295486 0.4004111106 0.9827757768
H -0.3648285316 1.3300715002 0.6501654355
H 0.9278594518 -0.5697840918 2.6588018900
H 0.2113564204 0.9983626195 2.9864791759
H -1.2811185837 -1.5033196253 2.0346862661
H -1.2787397097 -0.8540170995 3.6682805700
H -2.4411170826 0.5239789458 1.1930677678
H -2.3638959917 1.2615002926 2.7891314650
H -3.7799828205 -0.5932115470 3.7024297974
H -3.8235879515 -1.3438669910 2.1149447849
H -5.9147622972 -0.0200372799 2.5218532863
H -4.9981021994 0.6792815511 1.1798712587
H -4.9512464622 1.4424088325 2.7738765144
H 1.5120056455 -1.9427456320 0.8575078593
H 1.1921724388 -3.7489921820 -0.7854058736
H -0.3682834827 -3.4437778482 -2.6917553096
H -1.6255569807 -1.3149984885 -2.9170007217
H -1.3058187894 0.4930665319 -1.2614632774
