24
CONF245
C 2.5291441415 1.0295724604 0.8566072345
C 1.3425062653 0.0840914098 0.9989544754
C 0.2772505431 0.3095812809 -0.0830626453
C -0.8635585362 -0.6981321520 0.0286439208
C -2.1200359315 -0.3070436611 -0.7924781594
C -1.8074454365 0.0895115787 -2.2151158428
O -2.1607902108 -0.5997110581 -3.1550982826
O -3.0211461575 -1.4029595783 -0.7645425339
O -0.3527975336 -1.9502570746 -0.4221023433
O 0.8670219147 0.2498473712 -1.3817530281
O 0.6849151029 0.3139570167 2.2569972889
O 2.1343548387 2.4023668311 0.9249064908
H 3.2589254136 0.7933444489 1.6467049896
H 3.0122239086 0.8838080215 -0.1129992834
H 1.7094872326 -0.9518423862 0.9337166797
H -0.1240122502 1.3229739072 0.0369883968
H -1.1838671746 -0.7670462579 1.0768332648
H -2.5712303098 0.5712995929 -0.3035232251
H -1.2857968344 1.0488077557 -2.3602397669
H -3.1462282107 -1.6756277924 -1.6904310816
H -1.1076278911 -2.5534415834 -0.4869819087
H 1.0324702371 -0.6866933469 -1.5695099438
H 1.2645542258 -0.0107151466 2.9581447373
H 1.6316821607 2.5043080661 1.7450335774
