57
CONF55
C -4.2558215626 3.4118453328 -1.5126710669
C -4.2164017288 2.0477560407 -0.8136430815
C -2.8388852073 1.6624997573 -0.3287789693
C -2.1686326606 0.5690121681 -0.7761857360
C -2.6594081096 -0.2521795775 -1.9132199656
C -2.8081313370 -1.6373689613 -1.7663111015
C -3.2538727448 -2.4217049849 -2.8226592988
C -3.5391680381 -1.8404240285 -4.0563396278
C -3.3727482513 -0.4690480008 -4.2235206235
C -2.9363319730 0.3166529043 -3.1617536019
C -0.9185212997 0.0713342208 -0.1527322915
C 0.1426877562 -0.3674021212 -0.9489575017
C 1.3276501895 -0.8451694074 -0.3968156707
C 1.4569800202 -0.9153965633 0.9915249084
C 0.3961426657 -0.5060581395 1.8065041713
C -0.7674398584 -0.0210438393 1.2398116904
O 2.5624090558 -1.3739657912 1.6447178041
C 3.6541562013 -1.8526519021 0.8557148077
C 4.7004742294 -2.3500147776 1.8411910925
N 5.9583292259 -2.6941471128 1.1809804152
C 7.0050887759 -2.8974273408 2.1800034461
C 5.8255152110 -3.8914005794 0.3526859953
C -2.2534691039 2.5812472753 0.6788065490
C -2.9718882357 2.9755328162 1.8145630231
C -2.4207104714 3.8571638276 2.7381306615
C -1.1470331317 4.3797426489 2.5355024431
C -0.4292254141 4.0118536410 1.4000463142
C -0.9762742774 3.1235651172 0.4838957589
H -5.2769145599 3.6610130344 -1.8168186675
H -3.6242309837 3.4144889739 -2.4065867385
H -3.8937958691 4.2030394521 -0.8493958380
H -4.8857520908 2.0896388053 0.0567415911
H -4.6144086478 1.2720401027 -1.4712422380
H -2.5719207611 -2.0924239680 -0.8091717640
H -3.3767020070 -3.4914736176 -2.6848160438
H -3.8802941072 -2.4543742578 -4.8836669867
H -3.5758597892 -0.0092177090 -5.1857294560
H -2.7894027863 1.3833081261 -3.2981725193
H 0.0444355340 -0.3269615965 -2.0297617765
H 2.1306198041 -1.1568749364 -1.0532316563
H 0.5051926143 -0.5851441972 2.8827837467
H -1.5836887784 0.2891672899 1.8832473674
H 3.3017973839 -2.6548455781 0.1932479118
H 4.0742927979 -1.0434797182 0.2415178100
H 4.2827819524 -3.1992779513 2.4192173649
H 4.8942069568 -1.5388954725 2.5524896976
H 7.9530712579 -3.1195695147 1.6796383119
H 6.7792713208 -3.7304834019 2.8748345811
H 7.1377369813 -1.9854430136 2.7706747559
H 6.7943013735 -4.1313026070 -0.0963489244
H 5.1185341718 -3.7228360130 -0.4645130947
H 5.4847503763 -4.7742004929 0.9300204035
H -3.9625554242 2.5686936590 1.9928033295
H -2.9887890299 4.1363089215 3.6201577421
H -0.7189689372 5.0716065159 3.2535998095
H 0.5612933824 4.4205993723 1.2262955606
H -0.4144738336 2.8340977310 -0.3983053219
