55
CONF6
C -0.8701483407 0.2393717022 0.9722076986
C -1.7685631204 0.0277886130 2.1944237227
C -3.1874746135 0.4099614617 1.6921521142
C -3.0609791943 0.6773113556 0.1714629020
O -2.7861980437 2.0591610847 -0.1020007195
C -4.2861266887 0.2581737449 -0.6244796056
O -4.9820561079 -0.7023779013 -0.3282812875
C -4.6338965039 1.0625419907 -1.8585110374
O -5.6833528969 0.4565636458 -2.5875738731
C -1.7737781670 -0.1374359968 -0.2255847922
C -2.1058796502 -1.6366323041 -0.2643026205
C -1.0789829052 0.2837475405 -1.5212492591
C 0.3242928924 -0.3410410755 -1.6178698651
C 1.1948903990 -0.0247673793 -0.3930202250
C 0.4943951477 -0.4407347095 0.9253559841
C 1.3344705032 -0.0792285401 2.1517812981
C 2.7692187095 -0.6436733573 2.0555437504
C 3.3440110000 -0.1437848362 0.7719101309
C 4.3033736230 0.8116187168 0.7706926016
C 4.6624157168 1.5906990425 -0.4048274637
O 5.5313367712 2.4675181166 -0.3625137285
C 3.8524506514 1.3302202345 -1.6512314694
C 3.4254598342 -0.1304838998 -1.7236829751
C 2.6468285444 -0.6155877168 -0.4865637022
C 2.6317416246 -2.1575526660 -0.5507356606
H -0.6834978836 1.3191088093 0.8833335269
H -1.7398741063 -1.0191469522 2.5166960340
H -1.4586830072 0.6395977721 3.0454337657
H -3.5738597784 1.3083485991 2.1837200220
H -3.9090672150 -0.3905238532 1.8687895722
H -3.4134919971 2.5893127895 0.4064781820
H -3.7335184699 1.1679900883 -2.4806974206
H -4.9125567952 2.0781066882 -1.5382917192
H -5.9804599067 -0.2935035760 -2.0429044664
H -1.1965115021 -2.2363480435 -0.3282220433
H -2.6599338022 -1.9657728245 0.6174817162
H -2.7123829558 -1.8680947244 -1.1453324333
H -1.6657794499 -0.0177590263 -2.3979345696
H -0.9839001151 1.3744039409 -1.5439380060
H 0.8024918983 0.0440203944 -2.5238248827
H 0.2437403400 -1.4264596554 -1.7457504688
H 1.3071789037 1.0704613720 -0.3438504032
H 0.3468300570 -1.5285652664 0.9279903379
H 0.8574486753 -0.4584882458 3.0621473473
H 1.3917162055 1.0146908656 2.2424432350
H 2.7266057823 -1.7382740344 2.0759071003
H 3.3679912170 -0.3078332235 2.9069724709
H 4.7725347185 1.1099269750 1.7065569975
H 4.4368320776 1.6263669633 -2.5273807603
H 2.9764691407 1.9942780914 -1.6103933147
H 4.3297423144 -0.7485948343 -1.8004893476
H 2.8466342859 -0.3178397727 -2.6318265034
H 1.9586133886 -2.6155950802 0.1755577254
H 3.6400455659 -2.5465441598 -0.3740862000
H 2.3211923930 -2.4786475518 -1.5495534109
