38
CONF24
O 0.2746754201 0.1290906606 1.9406546294
P 0.1108944679 0.8151364639 0.6468239405
O 0.1011109145 -0.1518632998 -0.6469011117
C 0.0204236990 -1.5457163243 -0.5254358046
C -1.1713656710 -2.1632816652 -0.8742436779
C -1.2449363151 -3.5516505749 -0.8159548829
C -0.1418063522 -4.2979168780 -0.4109307534
C 1.0428408975 -3.6539812135 -0.0632742709
C 1.1329856805 -2.2669779104 -0.1198221788
O 1.1906232121 1.9352453974 0.2485114435
C 2.5410322341 1.5522092988 0.2158457308
C 3.1582132765 1.4714499984 -1.0242538280
C 4.5074941707 1.1367657391 -1.0797588020
C 5.2165423361 0.8828955331 0.0912357274
C 4.5747720047 0.9658677729 1.3239609492
C 3.2266407329 1.3042842214 1.3974271702
O -1.1950593181 1.7341799104 0.4412800612
C -2.4345185294 1.0913369407 0.3251010576
C -2.9256167833 0.2945015234 1.3517787953
C -4.1642666166 -0.3180714751 1.1825469246
C -4.8963542121 -0.1256397479 0.0145465473
C -4.3883063262 0.6873326489 -0.9958335059
C -3.1479921697 1.2993169753 -0.8472323150
H -2.0200906749 -1.5588310659 -1.1772812654
H -2.1711795720 -4.0487296930 -1.0851141182
H -0.2052250178 -5.3798876194 -0.3646526434
H 1.9038705119 -4.2316610746 0.2564991624
H 2.0436658901 -1.7441105251 0.1531299940
H 5.0032057965 1.0720765163 -2.0427580363
H 6.2681863430 0.6211362050 0.0431930916
H 5.1241106508 0.7684994090 2.2386025517
H 2.7042408624 1.3651116115 2.3448577161
H -2.3384190220 0.1499367353 2.2514715665
H -4.5562261444 -0.9485250579 1.9738565687
H -5.8617795175 -0.6050166197 -0.1073089244
H -4.9555954617 0.8434090053 -1.9075977589
H -2.7239877530 1.9264103111 -1.6233489722
H 2.5807096047 1.6676507921 -1.9204199511
