80
CONF10
C -5.2174739307 -0.3795672240 -0.8778794405
C -6.2042196751 0.7546447518 -0.6248059414
C -7.5210267337 -0.0103201794 -0.4319329514
C -7.1146798721 -1.2408821119 0.3869152302
N -5.6998763344 -1.4429400973 0.0170217917
C -4.9708755693 -2.4462875192 0.5282342261
O -5.4546633082 -3.3078048987 1.2717874912
C -3.4692065904 -2.5056642980 0.1977112548
C -2.6720338108 -2.5913657054 1.5230972039
C -1.2415269479 -3.0234182206 1.3425391450
C -0.9473035209 -4.3448987295 0.9880492803
C 0.3685157620 -4.7573612458 0.8071824164
C 1.4159573053 -3.8533206544 0.9883713956
C 1.1342024879 -2.5413240960 1.3586609097
C -0.1865175602 -2.1299781215 1.5333749945
N -3.0459880879 -1.4016257104 -0.6558134035
C -2.0839673030 -1.4457046967 -1.5976630936
O -1.3493918807 -2.3775582420 -1.8914285747
C -2.1135235313 -0.0834185681 -2.3224224619
C -2.4186702912 -0.2765056107 -3.7974695019
N -0.8628605354 0.6344910430 -2.1834676308
C -0.3119143025 0.9985921520 -0.9990422215
O -0.8542315206 0.7718935611 0.0901464582
C 1.0447507027 1.6658615119 -1.0797087885
C 1.0481636173 2.9719550126 -0.2888308113
N 2.3724280631 3.6040801214 -0.3327021449
C 2.2741622202 4.9248460062 0.3028861633
C 3.3853489475 2.7451082720 0.3138492610
C 4.7536574802 3.4659437198 0.3771442753
C 5.7892571526 2.5268597464 0.9046861985
C 6.9749932744 2.6751956237 1.5830017586
N 7.5153368683 1.4186064979 1.8401942109
C 6.6784106439 0.4467714012 1.3418614775
C 6.7150601945 -0.9501298378 1.3346189828
C 5.6406904575 -1.5992154832 0.7305555251
C 4.5551706051 -0.9068219677 0.1461142006
C 4.5212338212 0.4837577424 0.1470975656
C 5.5958936664 1.1310456951 0.7522659505
C 3.4652500324 1.3908808722 -0.4519262273
C 2.0969526960 0.7158891445 -0.4993315491
O -3.1900206081 0.6301911096 -1.6936636688
C -3.7421021512 -0.1156789894 -0.6117807791
O -3.5714052444 0.5396148507 0.5946407882
H -5.2855405305 -0.7135523155 -1.9232603098
H -6.2328040099 1.4626152233 -1.4553220001
H -5.9310620590 1.2870257867 0.2911051633
H -7.9195507306 -0.3197062732 -1.4036082295
H -8.2825542179 0.5825759357 0.0782931343
H -7.7056759497 -2.1306216363 0.1513747285
H -7.1811040203 -1.0595664410 1.4664324117
H -3.3098780166 -3.4313864117 -0.3702453735
H -3.1987627111 -3.3198684049 2.1462962904
H -2.7219182076 -1.6198314148 2.0234985004
H -1.7594787742 -5.0547170665 0.8489129431
H 0.5794348204 -5.7860525379 0.5303198142
H 2.4446252921 -4.1729853776 0.8507252443
H 1.9449246381 -1.8353430108 1.5123030710
H -0.4015133527 -1.1022641587 1.8087622361
H -2.5149755965 0.6996584203 -4.2810870904
H -1.6170995797 -0.8457088117 -4.2754684438
H -3.3582184864 -0.8232396890 -3.9013194027
H -0.3822965478 0.8912386342 -3.0335411560
H 1.2946865055 1.8842396224 -2.1247477955
H 0.7323837654 2.7625933482 0.7514351592
H 0.3204843367 3.6670840715 -0.7232717683
H 1.4314978813 5.4657253775 -0.1376928768
H 2.1066430335 4.8583174903 1.3943625837
H 3.1746822822 5.5159817042 0.1242519809
H 3.0767922867 2.5155956504 1.3572612511
H 4.6873525030 4.3517040230 1.0134357757
H 5.0071613865 3.8117364015 -0.6359287782
H 7.4938389368 3.5643439158 1.9142595971
H 8.3796174112 1.2568786714 2.3313059748
H 7.5324373871 -1.5098119358 1.7780684001
H 5.6334880848 -2.6851107752 0.7081816135
H 3.7550884040 -1.4863810680 -0.3033975627
H 3.7686815754 1.6343508397 -1.4832475766
H 1.7984484830 0.4353675344 0.5187646750
H 2.1410574302 -0.2013118354 -1.0962391321
H -2.6028507549 0.6859906636 0.6630974771
