66
CONF4
C -1.6728029532 4.3744926466 -1.0982194588
C -2.9236378010 3.7417854920 -0.5178264132
O -2.6022156852 2.4991400941 0.1492198821
C -2.4312715997 1.4142081051 -0.6591353395
O -2.6785156534 1.4409380733 -1.8535247763
C -1.9230041331 0.2751426499 0.1051047207
C -1.8194974653 -0.9439023675 -0.4905026880
N -1.3932163946 -2.0228014059 0.2508926179
C -1.0882230256 -1.9801847288 1.5935875884
C -1.1442171365 -0.7902603899 2.2532940802
C -1.4240426149 0.5196433788 1.5230297167
C -0.2170475370 1.4702232198 1.5168712717
C -0.2909860552 2.6564921508 2.2469934446
C 0.7262656689 3.6010997976 2.2125104520
C 1.8501309919 3.3800782422 1.4196573221
C 1.9409876360 2.2130735047 0.6779547466
C 0.9241411121 1.2455674610 0.7166855102
C 1.0666883131 0.0220191461 -0.0658637443
C 1.5769814196 -0.0724462409 -1.3032151183
C 1.6050485008 -1.3785172930 -1.9833735938
O 1.1866270222 -2.4253920415 -1.5160978981
O 2.1382819582 -1.2403227824 -3.2175222238
C 2.2387972594 -2.3914416631 -4.1380805326
C 2.8574612509 -1.7642485899 -5.3824515576
C 3.1654738302 -3.4508161732 -3.5509486800
C 0.8483797787 -2.9381103101 -4.4477366697
C -0.9204636542 -0.7574803040 3.6993848824
O -0.5333154402 -1.6785494162 4.3990491359
O -1.2144605468 0.4735121984 4.2076708146
C -0.9180448923 0.6686361520 5.6105509524
C 0.5520811928 0.9831073147 5.8093679120
C -0.7294927619 -3.3103042812 2.1840536813
C -2.1229509056 -1.2616347054 -1.9221330061
H -0.9120643034 4.5015704872 -0.3220456066
H -1.9140915326 5.3565483733 -1.5178130490
H -1.2636205021 3.7497974941 -1.8958647253
H -3.6738787150 3.5534064337 -1.2915467594
H -3.3586060265 4.3642677788 0.2686626556
H -1.1356868135 -2.8544072766 -0.2566799852
H -2.2053265247 1.0503227633 2.0747273570
H -1.1799123550 2.8403983943 2.8416807759
H 0.6396015889 4.5121973602 2.7966691242
H 2.6528669309 4.1095950209 1.3868836713
H 2.8249240162 2.0155321338 0.0794259644
H 0.7327669252 -0.9016610323 0.3937877292
H 1.9127565838 0.7937601272 -1.8640757809
H 2.9950790580 -2.5273689931 -6.1535402160
H 2.2089946414 -0.9782028456 -5.7791327782
H 3.8313025248 -1.3265615007 -5.1465300135
H 3.3477723069 -4.2228283074 -4.3052235828
H 2.7296084414 -3.9179546650 -2.6672767129
H 4.1270230542 -3.0034155792 -3.2816882808
H 0.1874158563 -2.1287151690 -4.7731288106
H 0.9240749323 -3.6646193404 -5.2628992517
H 0.4115380032 -3.4300453208 -3.5783120567
H -1.2158122707 -0.2234383371 6.1693064888
H -1.5505290494 1.5107391221 5.9045825384
H 1.1685007535 0.1266041873 5.5264334112
H 0.8452065099 1.8459600015 5.2039697919
H 0.7427446357 1.2130336353 6.8626356688
H 0.2741949163 -3.2851376694 2.6129223233
H -0.7780344890 -4.0940838989 1.4227944267
H -1.4031231573 -3.5661936815 3.0047295243
H -3.1462777417 -0.9818167255 -2.1795730737
H -1.4728643778 -0.6827315256 -2.5831885488
H -1.9764847958 -2.3272964844 -2.1199382820
