42
CONF1039
C -2.0546657785 -0.2957651985 1.9748521682
C -2.6806313952 1.0822735619 2.0841203189
O -2.1131113731 2.0535041824 1.2125263600
C -2.5684817243 1.9708884572 -0.1421206948
C -1.8463380682 3.0155738167 -0.9726988736
O -0.5529013425 2.6229698962 -1.4172128281
C 0.4237153526 2.5845997137 -0.3844325945
C 1.7414705706 2.1530244938 -0.9742981772
O 1.6669776493 0.7748733784 -1.3198046133
C 2.9366117884 0.2204595466 -1.5952424030
C 2.7695293518 -1.2455860686 -1.9587510705
O 1.9818129972 -2.0010504393 -1.0506262937
C 2.3783184639 -1.9074945416 0.3107546178
C 1.5030072203 -2.8328059514 1.1361089331
O 0.1847584539 -2.3548864570 1.3617473710
C -0.6715162924 -2.4152686603 0.2144005278
C -2.1197810819 -2.2909982871 0.6540023089
O -2.5817864313 -0.9564378881 0.8263990041
H -2.2949468209 -0.8778415348 2.8826893438
H -0.9611321834 -0.2042996957 1.9141601950
H -2.5045768267 1.4605677544 3.0977366499
H -3.7692545061 1.0062389122 1.9262828714
H -2.3844520635 0.9742940216 -0.5620487468
H -3.6550548939 2.1659801256 -0.1751648110
H -1.7944910575 3.9622942695 -0.4080868757
H -2.4224039010 3.1905824640 -1.8878161569
H 0.1357157696 1.8842034039 0.4099004562
H 0.5390493805 3.5849700164 0.0691317857
H 1.9862640096 2.7593274930 -1.8619758520
H 2.5297492140 2.3129254961 -0.2177306577
H 3.4264251813 0.7279054514 -2.4459489071
H 3.6039337628 0.3394749322 -0.7226689389
H 3.7775173408 -1.6865855138 -2.0617531836
H 2.2537573668 -1.3301324712 -2.9201328066
H 3.4351561388 -2.2113481173 0.4288417591
H 2.2630086077 -0.8790531633 0.6855304083
H 1.4752519263 -3.8272606174 0.6596037733
H 1.9519409532 -2.9370879962 2.1305149638
H -0.4245825570 -1.6216896537 -0.5035388290
H -0.5337716009 -3.3848541636 -0.2924436463
H -2.2740297076 -2.8760702988 1.5762810537
H -2.7560621847 -2.7104148600 -0.1330358839
