15
CONF1
C -0.2369027192 -3.4558634880 0.2009841506
C -0.1865117489 -1.9595882246 0.1089827039
C -1.3747535710 -1.2143199565 0.1510094668
Br -3.0160885243 -2.1645540929 0.3242159170
C -1.3882291140 0.1810006517 0.0709551829
Br -3.0240292701 1.1298800422 0.1340522753
C -0.1763212535 0.8721377617 -0.0568008007
Br -0.1700656868 2.7617317957 -0.1655497544
C 1.0281497676 0.1588907904 -0.1029162699
Br 2.6676583697 1.0894185745 -0.2762643123
C 1.0097586257 -1.2400141594 -0.0202296173
Br 2.6630443664 -2.1893104500 -0.0856036572
H -0.8398398286 -3.8632732576 -0.6161141344
H 0.7562231040 -3.8944142301 0.1575151170
H -0.7175418355 -3.7596090996 1.1357539212
