47
CONF158
C -1.9773670718 -1.8899530452 2.1186382648
C -2.1513431387 -1.1013555974 0.8405555583
C -3.5275793311 -0.6529485433 0.4060866621
C -2.5626774497 0.3638251277 1.0142420259
C -1.9985944086 1.4015303184 0.1401406947
O -2.0297574793 1.4468240071 -1.0699582662
O -1.3700386698 2.3556921196 0.8995428846
C -0.6715860967 3.3632986899 0.1336626791
C -0.3891941553 4.4438232809 1.0802696054
N -0.1298727622 5.3112295345 1.7967825184
C 0.6094855197 2.8319544267 -0.4783419266
C 1.3929752694 1.9259201397 0.2348913264
C 2.5584065019 1.4324124095 -0.3313088573
C 2.9381037844 1.8751293011 -1.5993514267
C 2.1705650152 2.7731924784 -2.3160592209
C 0.9924151845 3.2507298831 -1.7492464542
F 4.0812392527 1.3980883959 -2.1304644828
O 3.3597023423 0.5775866923 0.3884002662
C 3.5078304588 -0.7249957615 -0.0706363938
C 2.6725314196 -1.2909354463 -1.0289220275
C 2.8767080689 -2.6194479752 -1.3980543353
C 3.8950357765 -3.3710290563 -0.8188284790
C 4.7188867498 -2.7850547704 0.1421272382
C 4.5318456775 -1.4604670067 0.5204547668
C -4.7387329592 -1.0025628934 1.1513808800
C -5.9260451468 -1.2711771241 0.6071766959
Cl -6.2447647300 -1.2498361719 -1.1053522287
Cl -7.3189386808 -1.6858400291 1.5730688832
C -1.1704573317 -1.4820614966 -0.2438430456
H -2.1929398607 -2.9483087944 1.9348589539
H -2.6249986996 -1.5385905113 2.9241718109
H -0.9401065315 -1.8095675079 2.4596865687
H -3.6419154528 -0.5491557474 -0.6685639483
H -2.7365951139 0.6723229553 2.0396173035
H -1.3252220879 3.7561073451 -0.6544257515
H 1.1052972536 1.5823755400 1.2232980574
H 2.4932199767 3.0847916814 -3.3033769098
H 0.3713072422 3.9457797953 -2.3048506475
H 1.8718931095 -0.7136561043 -1.4786264503
H 2.2264942697 -3.0646335717 -2.1447494506
H 4.0465407800 -4.4043144807 -1.1123448559
H 5.5169919481 -3.3605888334 0.6004694870
H 5.1650822436 -0.9897233156 1.2650672682
H -4.6840741265 -1.0491956936 2.2346599628
H -0.1442448355 -1.3145715139 0.1022009469
H -1.3261093215 -0.9148690009 -1.1630971880
H -1.2794020908 -2.5477740445 -0.4714188715
