44
CONF59
C 4.7602317308 1.7819726757 -2.4205509070
C 3.7037365742 1.1264219799 -1.5377487882
C 2.6460584667 0.2782209139 -2.3392543031
N 1.4353210644 0.3008080691 -1.5492792291
C 1.1201644362 1.5243779990 -0.7975661546
S 2.6955877024 2.4727686898 -0.7003751328
C 0.6521219446 0.6163209311 0.3897372143
C 1.0558804984 -0.5625461417 -0.5266935437
O 1.0748508795 -1.7677470264 -0.4407560767
N -0.6942649186 0.6932388115 0.8549322422
C -1.0149004864 0.8719868295 2.1684449506
O -0.1740248179 1.0394152695 3.0459662639
C -2.5339694895 0.8628483866 2.4556241743
C -3.1443026505 -0.4671419904 2.0628923024
C -2.5271400138 -1.6681007505 2.4211314551
C -3.1063689755 -2.8929650174 2.1109488393
C -4.3239827422 -2.9262764603 1.4273119574
C -4.9520849894 -1.7361202372 1.0583583458
C -4.3604878341 -0.5203521787 1.3789848169
O -4.9436731416 -4.0952955364 1.0897276816
N -2.8615502344 1.1811774514 3.8448593139
C 2.4406854367 0.7780784410 -3.7605030457
O 1.5009824785 1.7333960629 -3.8429550008
O 3.0788710858 0.3675085335 -4.7041728405
C 4.3624994596 0.2311068153 -0.4878386471
H 5.3282346164 1.0077730342 -2.9466851575
H 5.4582929196 2.3517493510 -1.8010529631
H 4.3203957850 2.4601680907 -3.1563461544
H 3.0078805674 -0.7514345603 -2.4190911299
H 0.3377723632 2.1464122679 -1.2395237432
H -1.4423353854 0.5146215242 0.1985858379
H -1.5753449940 -1.6542462940 2.9472575893
H -2.6152454620 -3.8210393613 2.3916030565
H -5.8960257043 -1.7753308953 0.5243289442
H -4.8549573935 0.4041586019 1.0935542259
H -4.4152741280 -4.8423074983 1.4015990511
H -2.3687901957 2.0289765079 4.1134572472
H -2.4842118375 0.4504330129 4.4426166761
H 4.9745196136 -0.5292903149 -0.9865578986
H 5.0073803306 0.8291262793 0.1609083901
H 3.6245155791 -0.2747878306 0.1410513496
H 1.4358645550 2.0224815075 -4.7702235157
H -2.9723792778 1.6417987033 1.8160256176
H 1.3319401123 0.6843945429 1.2445775824
