35
CONF14
C 5.2295252170 -1.2017176654 0.5057324858
O 4.0896746331 -1.5092474117 1.3211305939
C 2.8977111980 -0.9515633314 0.9724776405
C 1.8092895703 -1.2827652792 1.7926337033
C 0.5554698183 -0.7692677272 1.5164761338
C 0.3447130888 0.0850405888 0.4236154731
C 1.4346805558 0.4086223674 -0.3781482689
C 2.7084214121 -0.1005694758 -0.1170133085
C -1.0488230328 0.6601633867 0.1967753657
C -1.1628028419 1.4319202253 -1.1193114828
C -2.2583262303 2.4405460756 -1.2963882914
C -0.8205889946 2.8912233729 -1.2019147372
C -2.0899124838 -0.4462712647 0.1488877521
C -1.8956567291 -1.5779222874 -0.6409514344
N -2.8080749044 -2.5480924751 -0.7529063409
C -3.9359445702 -2.3762440064 -0.0539274306
N -4.2330909170 -1.3405934328 0.7325474220
C -3.3038659739 -0.3772888823 0.8254419874
O -1.4003350647 1.4956350507 1.3149377010
H 5.4403127833 -0.1260843592 0.5159000936
H 6.0645419366 -1.7438080371 0.9499716049
H 5.0762656384 -1.5397421869 -0.5256821020
H 1.9687049105 -1.9453364183 2.6375068918
H -0.2799223166 -1.0351204024 2.1585461596
H 1.3068539454 1.0735995535 -1.2251503112
H 3.5304041165 0.1748455173 -0.7661882679
H -0.9230348099 0.8282624616 -1.9912960443
H -2.7496723457 2.4877655232 -2.2622657041
H -2.8912614337 2.6388161621 -0.4374989487
H -0.5193692645 3.3975971314 -0.2902807723
H -0.3276469740 3.2394299673 -2.1038364410
H -0.9679929607 -1.7081669208 -1.1977102242
H -4.6858023720 -3.1626628193 -0.1347855708
H -3.5355582662 0.4694952884 1.4648605652
H -0.6188854384 2.0195015734 1.5339083208
