50
CONF23
C 1.4309293463 1.2805480415 -2.4196734434
C 1.7776885361 0.0673330385 -1.5926728237
C 2.0663637589 0.2330500297 -0.2366501690
C 2.5682087795 -0.8493612374 0.5096727421
C 2.8067291884 -2.0763067158 -0.0582766764
C 2.4945242982 -2.2971096728 -1.4152664475
C 1.9119311017 -1.2309818148 -2.1697419135
C 1.4756148268 -1.6306914014 -3.4927904708
N 1.8006097899 -2.8108735114 -4.0112081463
C 2.4804372486 -3.6813882843 -3.2272555821
N 2.7814001640 -3.5204738213 -1.9459191478
N 2.8027464111 -4.8754585864 -3.8165280221
N 0.6973858919 -0.8442214859 -4.2769369808
C 1.8823819081 1.5643846438 0.4753014311
N 0.5528166155 2.1366864053 0.3645562941
C -0.5617146790 1.6378052999 0.9951975621
C -0.5120157787 0.4406955499 1.7282235160
C -1.6724623497 -0.0436409626 2.3370572646
C -2.8831595817 0.6527379221 2.2456303423
C -2.9203544640 1.8491407086 1.5097955885
C -1.7763031815 2.3443078720 0.8890517732
O -4.1385321114 2.4612671796 1.4650267310
C -4.2376336233 3.6821547177 0.7216994572
O -4.0148048159 0.1845099414 2.8836271053
C -4.8041190892 -0.6857874979 2.0489926060
O -1.7174075083 -1.2031086243 3.0548287841
C -0.5111209138 -1.9722122848 3.1432538362
H 1.8278474811 1.1968139572 -3.4329680024
H 0.3496449199 1.4568444778 -2.4803387952
H 1.8630584349 2.1767548668 -1.9726270231
H 2.7946766475 -0.6963796602 1.5627603833
H 3.2352223783 -2.8921735764 0.5147950379
H 3.5119100085 -5.4272854734 -3.3597757270
H 2.8059899672 -4.8964798158 -4.8241987041
H 0.2988284191 -1.2887773442 -5.0906016214
H 2.1557315894 1.4245252268 1.5321990237
H 2.5816150225 2.3072898229 0.0749893627
H 0.4749498699 3.0505596970 -0.0485840741
H 0.4139510751 -0.1073654646 1.8094776006
H -1.7996731186 3.2679418260 0.3233562244
H -3.5839671872 4.4547967676 1.1430911884
H -5.2784116971 3.9957831944 0.8087921507
H -3.9880442396 3.5230572002 -0.3339322215
H -4.2245920062 -1.5704944267 1.7586142948
H -5.6690253034 -0.9914308492 2.6422323820
H -5.1418117563 -0.1555830227 1.1504057345
H -0.1638767414 -2.2780400912 2.1488471600
H 0.2803251431 -1.4097491506 3.6525902027
H -0.7678291092 -2.8549877297 3.7297304020
H 0.1596312259 -0.0981782515 -3.8719248710
