74
CONF129
C -0.8411495404 -1.7301007288 -0.8707322152
C -0.4413194022 -3.1116663219 -1.3784205373
O -1.4324377138 -4.0093349110 -0.7979369653
C -2.0296773264 -3.4377237590 0.2900947063
O -2.8278361033 -4.0338101227 0.9635755169
C -1.4475800156 -2.0534626709 0.4837346105
C -2.3213973720 -0.8996538500 0.9820251427
C -3.6224560500 -0.7580775190 0.1956464862
C -4.6840125456 -1.6121877974 0.4967605665
C -5.8508400915 -1.5469491479 -0.2562074781
O -6.9505379132 -2.3460041628 -0.0763938035
C -6.8311611718 -3.4123141857 0.8670150315
C -5.9929006787 -0.6213082603 -1.2956467204
O -7.1371478332 -0.5495759080 -2.0288273449
C -4.9354016152 0.2488845851 -1.5781881994
O -5.1596972532 1.1280350687 -2.5956862179
C -4.1132839814 2.0389826936 -2.9074281770
C -3.7544716575 0.1724579758 -0.8367169058
C -1.4892614679 0.3751258522 0.9141518964
C -1.9651527458 1.4816779706 1.6438415471
C -1.3045799631 2.6769653984 1.5094210855
C -0.2153631343 2.8197750039 0.6564163088
O 0.2099370757 4.1248632650 0.6586369732
C -0.5075800437 4.7477965626 1.7379452351
O -1.6052332325 3.8840959847 2.0836900183
C 0.2618209649 1.7659564008 -0.0794662506
C -0.3743289099 0.5125940770 0.0698350060
C 0.2125769513 -0.6569360128 -0.6989348692
O 1.3161615425 -1.2980974205 0.0123725826
C 2.3787646354 -0.4842176350 0.3865715977
O 2.9953689955 0.0454053754 -0.7918375765
C 4.0856735508 0.8884093257 -0.4273755892
C 4.6799521537 1.5279721062 -1.6714039759
O 5.8102542674 2.3073859272 -1.2846679994
C 6.7868625941 1.5267692703 -0.6052021019
C 7.9239214415 2.4342823050 -0.2191384928
O 6.2610113986 0.9455536362 0.5796903250
C 5.1805401907 0.0738509792 0.2653601444
C 4.6304066369 -0.5708828111 1.5188643842
O 5.6139271401 -1.4289466932 2.0743880970
C 3.3726168128 -1.3589233158 1.1482636211
O 2.8188106007 -1.8278551223 2.3752393917
H -1.6328417868 -1.3249320765 -1.5143721423
H -0.4997461356 -3.2241131408 -2.4629130200
H 0.5491261850 -3.4141715127 -1.0247583281
H -0.6273671232 -2.1915327557 1.2062120130
H -2.5850961520 -1.0900828210 2.0295282638
H -4.5738757683 -2.3396033111 1.2896119737
H -5.9785846424 -4.0575657002 0.6240314653
H -6.7180292383 -3.0230455837 1.8863776811
H -7.7602941978 -3.9789146991 0.7954465221
H -7.7303711306 -1.2331994683 -1.6873857964
H -3.2048611915 1.5121217529 -3.2300560713
H -4.4879888218 2.6504975296 -3.7294051325
H -3.8740673559 2.6840122949 -2.0511307970
H -2.9395351724 0.8533084948 -1.0453450011
H -2.8494803298 1.3928046421 2.2656577578
H 0.1596798496 4.8506900338 2.6069014702
H -0.8977086459 5.7132327087 1.4053909869
H 1.1024773510 1.8789693789 -0.7562709658
H 0.6012702189 -0.3071958523 -1.6631414565
H 2.0406317602 0.3518349120 1.0264099510
H 3.7479003628 1.6843013551 0.2589766201
H 3.9714583943 2.2062211294 -2.1549259038
H 4.9675765327 0.7403827793 -2.3883460775
H 7.1125205278 0.7095677838 -1.2796587067
H 8.6907648819 1.8604305570 0.3049155392
H 7.5507666666 3.2216536016 0.4401474804
H 8.3561501429 2.8887697602 -1.1128974523
H 5.5252308735 -0.7206736110 -0.4215197788
H 4.3530142631 0.2220467722 2.2351951889
H 5.1933771747 -1.8948441541 2.8080929683
H 3.6594303236 -2.1982274640 0.4945224715
H 2.0746722849 -2.4015536476 2.1588522134
