48
CONF1
C -3.2957803474 2.9868227282 -0.5143619302
O -4.1815529183 1.9373695582 -0.9323156228
C -3.8431659463 0.6635949369 -0.6029739012
C -4.7504077792 -0.3254163776 -1.0591376982
C -4.5177698853 -1.6463141970 -0.7916969840
C -3.3715294629 -2.0537895575 -0.0626335819
N -3.1983089851 -3.3859695898 0.1632323781
C -2.1291089667 -3.7518945901 0.8465006532
C -1.1714032059 -2.8507832131 1.3472617337
C -1.3160113423 -1.4983803237 1.1305483974
C -0.2806500463 -0.5128062643 1.6374455670
O 0.5120574212 -1.0705373327 2.6873022095
C 0.6278060772 -0.0731725754 0.4742272369
C 1.6083216650 -1.1703936383 -0.0108174164
C 2.9040533375 -0.4731857858 -0.4532227868
C 3.5915077927 0.0876548446 0.7978242083
C 2.5618117373 0.9686217142 1.5584728466
N 1.3412528127 1.1973734405 0.7492751363
C 1.7665149105 1.7458315312 -0.5532738813
C 2.5233074717 0.6798282442 -1.4151400984
C 3.6915691212 1.2798351331 -2.1250432515
C 3.8397736098 1.3202070127 -3.4500239504
C -2.4565576121 -1.0555366368 0.3981697174
C -2.7184843487 0.3092142008 0.1152575727
H -3.2212656657 3.0229982089 0.5785895808
H -2.2987345363 2.8515393449 -0.9499050055
H -3.7384309388 3.9113337478 -0.8849311644
H -5.6247941922 -0.0090450522 -1.6188739906
H -5.2060796668 -2.4121016329 -1.1350691851
H -2.0002852078 -4.8196400040 1.0201635462
H -0.3197761521 -3.2260674645 1.9032891401
H -0.7927373907 0.3868873190 2.0082118654
H -0.0690935217 -1.2208340778 3.4442699284
H -0.0590963672 0.1629634763 -0.3473145745
H 1.1645399286 -1.7332537471 -0.8389397691
H 1.8345168764 -1.8792747428 0.7928175937
H 3.5596636933 -1.1830198236 -0.9683122205
H 4.4798939157 0.6664446578 0.5236883403
H 3.9301854851 -0.7414018871 1.4292345390
H 2.9873467733 1.9508441052 1.7930792469
H 2.2641926783 0.5017040416 2.4983485164
H 2.4187963760 2.6053151544 -0.3552804469
H 0.8889327621 2.1124893477 -1.0987888513
H 1.8392494988 0.2713924903 -2.1706985893
H 4.4602244116 1.7288237136 -1.4935328589
H 4.7085537359 1.7813384548 -3.9107069737
H 3.0913486544 0.8918143564 -4.1135708689
H -2.0343977636 1.0705762688 0.4637955230
