29
CONF1
C -3.1962681704 -1.3074034010 -0.3381192186
C -2.1795789572 -0.3854383664 0.2833407745
O -2.5690027078 0.9978415458 0.0253802239
C -1.4166630902 1.6435310558 -0.3378884757
C -1.2128278603 2.9958786481 -0.5103156740
C 0.0682488116 3.3915500362 -0.9212161849
C 1.0836330250 2.4654567624 -1.1330540594
C 0.8436010623 1.1008560519 -0.9556414482
C -0.4193525650 0.7044417360 -0.5708005192
O -0.9001009449 -0.5593831619 -0.3975205015
O 1.8448144012 0.1795733379 -1.2212586193
C 2.2262348761 -0.6261683214 -0.1516993895
O 1.8514161601 -0.4702071038 0.9869429245
N 3.0810279169 -1.5722654427 -0.6082648326
C 3.7030152071 -2.5403491879 0.2744203816
C -1.9640513292 -0.5708168608 1.7716306792
H -4.1674247633 -1.1584576110 0.1399214833
H -2.8860687241 -2.3452741656 -0.1952818275
H -3.2834106707 -1.0989471486 -1.4062485569
H -2.0054265638 3.7127906848 -0.3336882336
H 0.2757786838 4.4462858706 -1.0629948737
H 2.0774281413 2.7810293308 -1.4294641951
H 3.2930398662 -1.5744719615 -1.5918143250
H 4.7938929568 -2.4321752711 0.2791388117
H 3.3284305631 -2.3634513318 1.2839789040
H 3.4486877582 -3.5643990618 -0.0216514558
H -1.6307330843 -1.5920919197 1.9715640713
H -2.8957901992 -0.3793367324 2.3100497038
H -1.1925504926 0.1214016819 2.1188540449
