49
CONF4
C -4.2534695984 2.5732983368 -0.1254762103
C -2.8024903301 2.1084760238 -0.0587856397
C -1.9815344245 2.6774092565 -1.2306820836
C -0.5217246117 2.3156916372 -1.1287045882
C 0.0337269921 1.2756178259 -1.8852294498
C 1.3584313311 0.8911905099 -1.7253083408
C 2.1693235184 1.5481465367 -0.7950234869
C 1.6426884659 2.5996863611 -0.0395686434
C 0.3087590286 2.9651506501 -0.2132384883
O 3.4550410814 1.0965167331 -0.6999432182
C 4.3283289260 1.7777991588 0.2097493543
N -2.7258704416 0.6372072884 -0.0923668314
C -2.8445439108 0.0102035697 1.2268952505
C -2.7627345553 -1.5112209605 1.0546568263
C -1.4323914974 -1.9085347843 0.4264306929
C -0.2481687711 -1.6240956904 1.1137445171
C 0.9931316741 -1.9019865024 0.5445526241
C 1.0476965181 -2.5024379645 -0.7281819552
C -0.1258849764 -2.8010240224 -1.4038959597
C -1.3611606036 -2.4978861468 -0.8323513229
O 2.2925448978 -2.7530974737 -1.2343845540
N 2.2201093603 -1.6284201855 1.1732633296
C 2.4791841341 -0.7316371970 2.1612392470
O 1.6576013531 -0.0212378161 2.7317478504
O -3.8808988615 -1.9743428341 0.2959658660
H -4.8469128097 2.1325540706 0.6813880779
H -4.7003731972 2.2778180959 -1.0809797493
H -4.3126083382 3.6626062990 -0.0331386632
H -2.3483884237 2.4912992313 0.8746069647
H -2.4014228180 2.2978725626 -2.1707545543
H -2.1026399958 3.7664006769 -1.2305098132
H -0.5833950280 0.7540483946 -2.6133644479
H 1.7786181298 0.0793865461 -2.3107495763
H 2.2505289329 3.1344890978 0.6801325950
H -0.0918428650 3.7806147793 0.3840297375
H 5.2886630133 1.2663831853 0.1374812242
H 3.9561469734 1.7158388101 1.2391632682
H 4.4473086461 2.8301957188 -0.0744391053
H -1.8071369275 0.3823572971 -0.4499711401
H -3.8162321062 0.2585496344 1.6694882678
H -2.0625383034 0.3459505937 1.9304486834
H -2.8467129838 -1.9800003333 2.0430545050
H -0.2835993598 -1.1768735294 2.0984854602
H -0.0704200594 -3.2609465023 -2.3871022028
H -2.2708161883 -2.7278872175 -1.3752336827
H 2.2117638555 -3.1809258124 -2.0973553919
H 3.0326794550 -2.0649431325 0.7579636323
H 3.5559259744 -0.7080561462 2.4074328521
H -3.9895528984 -1.3355514375 -0.4263179251
