82
CONF149
C -2.7902687983 3.1656738737 -0.5387539654
C -2.0566877567 2.4195917469 0.5410560643
C -1.0145478393 2.9726488123 1.1753199445
C -2.5740498297 1.0594025788 0.9449640936
C -3.8723336146 1.1566691844 1.7709956148
C -4.3080720131 -0.3015699959 1.8717626670
C -4.0084014241 -0.9144636559 0.4792606035
C -2.9821636061 0.0715208806 -0.1842554774
C -1.9001821424 -0.6507754592 -1.0237979249
C -0.9782259530 0.3344265492 -1.7462366104
C 0.2121629514 -0.3933757609 -2.3540321184
C 1.1596100969 -0.9698610431 -1.2782248393
C 2.3859710742 0.0299506329 -1.0238355032
C 2.0240171532 1.5358267533 -1.0724509510
C 3.2379890764 2.4466978985 -0.8394456001
C 3.9204934343 2.2047828082 0.5045652441
C 4.2517812184 0.7046349087 0.7300992217
C 3.0465510487 -0.2324112198 0.3605633963
C 1.9878409746 -0.2145850883 1.5000618998
C 0.5347332632 -0.4714694488 1.0934958914
C 0.3935243467 -1.5167755931 -0.0127214490
C -1.1240447692 -1.8492982254 -0.3475310767
C -1.9253810649 -2.2937734832 0.9012644987
C -3.4275955559 -2.3321238885 0.6148647453
C -1.1571147567 -3.0598521346 -1.3241583158
C 1.0852098989 -2.8100390934 0.4716215371
C 5.5159465914 0.3820837806 -0.0966242687
C 4.6679551780 0.4765351698 2.1947573095
O 3.1451905784 2.7999059917 1.5714025720
C 3.3318279596 -0.2967514318 -2.2038051989
C -5.3210423043 -0.9504718518 -0.2993869030
O -5.0761717057 -1.3223320823 -1.6654425117
H -2.6496078981 2.6858790179 -1.5134901514
H -2.4352887849 4.1967242767 -0.6108180422
H -3.8699598594 3.1810301160 -0.3509206420
H -0.4821990864 2.4392141689 1.9596993903
H -0.6677474183 3.9731431261 0.9293469175
H -1.8275896926 0.5910639453 1.5934449673
H -3.7058201599 1.6320256192 2.7429376486
H -4.6208772410 1.7473136475 1.2284070061
H -3.7059557718 -0.8086787440 2.6349018146
H -5.3603450215 -0.4244764410 2.1545666254
H -3.5460546200 0.6704337947 -0.9130534964
H -2.4898225509 -1.1273397856 -1.8152379052
H -1.5504587839 0.8461188655 -2.5307875086
H -0.6299639917 1.1135234069 -1.0644763117
H 0.7635301453 0.2727411296 -3.0232921417
H -0.1639397160 -1.1961976654 -2.9975917522
H 1.6409335123 -1.8508565817 -1.7206472995
H 1.2592901128 1.7662920884 -0.3202645296
H 1.5831234786 1.8026161027 -2.0376650180
H 3.9692060702 2.3254944991 -1.6440874385
H 2.9213784743 3.4963319322 -0.8782374405
H 4.8734248628 2.7513389758 0.5321191019
H 3.4753241113 -1.2428759116 0.3146692361
H 2.2887117265 -0.9533829592 2.2503835408
H 2.0126479913 0.7448994971 2.0197540311
H 0.0766238358 0.4626302953 0.7651863763
H -0.0057739309 -0.7795579602 1.9947854586
H -1.5864801459 -3.2825449111 1.2278819355
H -1.7589159941 -1.6156767356 1.7441932575
H -3.6204226338 -2.9069330168 -0.2968574914
H -3.9558058920 -2.8486084920 1.4269152100
H -0.4149858545 -2.9756263050 -2.1206245735
H -2.1368690307 -3.1502246135 -1.8009355304
H -0.9649475753 -3.9973984792 -0.7945274212
H 2.1294663667 -2.6279798801 0.7279473608
H 1.0787881896 -3.5845094594 -0.2983389647
H 0.5946890484 -3.2094040483 1.3658708338
H 6.3867300201 0.8556193116 0.3698292706
H 5.4711433590 0.7329754868 -1.1263295451
H 5.6908172291 -0.6986885913 -0.1164021395
H 3.8835206521 0.7242429850 2.9091163698
H 5.5387435638 1.0989059403 2.4304539599
H 4.9542088016 -0.5719556052 2.3414917197
H 2.2101023417 2.7128152393 1.3489213194
H 2.7483551005 -0.4258178846 -3.1211056493
H 3.8659688670 -1.2345504421 -2.0162466328
H 4.0709790107 0.4745881957 -2.4127824915
H -6.0010342069 -1.6757920024 0.1760466011
H -5.7955321867 0.0430534961 -0.2581740395
H -5.9258323444 -1.3323604669 -2.1213276087
