57
CONF4
C 1.7423038248 -0.6498583817 0.6561562386
C 2.6586096050 -0.8415891107 1.8682474459
C 4.0775291346 -0.9190177287 1.2701204357
O 5.0562472678 -0.1577056555 1.9952217383
C 3.9633725186 -0.4530111700 -0.2421392121
C 4.0827402666 -1.6640242684 -1.1636621157
O 5.0267319432 0.4236326408 -0.5910797811
C 2.5615436737 0.2400759821 -0.2988859028
C 2.7106160632 1.6812330357 0.2162046910
C 1.8481655344 0.2523729173 -1.6525414294
C 0.3975092021 0.7373353959 -1.5102615977
C -0.4097625533 -0.0702141396 -0.4762114176
C 0.3158356432 -0.1599409405 0.8887760202
C -0.4436704542 -1.0913983574 1.8348956288
C -1.8984741824 -0.6675730119 1.9919822563
C -2.6144173039 -0.5691398451 0.6452072042
C -4.0962625654 -0.2114393687 0.8649562509
C -4.7337445868 0.0617297770 -0.4468531775
C -4.0655640084 0.2861981785 -1.6319453182
C -2.5761538667 0.2550412675 -1.7405525421
C -1.8938146822 0.3901394736 -0.3517188864
C -2.0108405968 1.8497760392 0.1110807808
C -5.0879935098 0.5245038802 -2.5772268562
N -6.3005825999 0.4538531774 -2.0265915427
N -6.0581245273 0.1725048121 -0.7288006941
H 1.6463535016 -1.6309541033 0.1637562600
H 2.5793522211 0.0240305099 2.5415336101
H 2.4166652855 -1.7257029949 2.4639496729
H 4.4581697386 -1.9454431842 1.2913526354
H 4.6045501695 0.5677908551 2.4409606682
H 5.0435838019 -2.1537480143 -0.9801365968
H 3.2862159100 -2.3983474139 -1.0051333199
H 4.0619104170 -1.3457865580 -2.2090822233
H 5.4960250200 0.6184077674 0.2356811704
H 1.7439018984 2.1665503463 0.3631999112
H 3.2868599540 2.2660462727 -0.5042409182
H 3.2471554745 1.7349546790 1.1677099960
H 2.3873447027 0.8840110643 -2.3696063973
H 1.8319203392 -0.7628231000 -2.0669334512
H 0.3909686082 1.7997583427 -1.2461208849
H -0.0869577402 0.6643601254 -2.4891981659
H -0.4530561689 -1.1081881954 -0.8525770278
H 0.3514675924 0.8378700493 1.3497115058
H 0.0471105678 -1.1165388388 2.8150988197
H -0.4009968293 -2.1150421638 1.4328875511
H -1.9470948666 0.3025517151 2.5045927207
H -2.4338137118 -1.3797212441 2.6332133816
H -2.5887540008 -1.5659375282 0.1760938708
H -4.5914514165 -1.0390324926 1.3896035568
H -4.1720349917 0.6645797594 1.5266120230
H -2.2367849347 1.0614056227 -2.4005525949
H -2.2484610088 -0.6866612869 -2.2057969110
H -3.0577904033 2.1667825298 0.1184642355
H -1.6025260837 2.0077490262 1.1130629876
H -1.4827178165 2.5186249052 -0.5733938828
H -4.9947340436 0.7431171567 -3.6331744993
H -6.8341795372 0.0718516279 -0.0959159312
