39
CONF4
C -4.6933488061 3.4745484338 -0.5033563361
N -3.6903841028 2.4534514927 -0.2505313291
C -3.5389799360 1.2707419330 -0.8816457293
C -2.4156891142 0.6588890823 -0.3479455361
C -1.9619874692 1.5878679522 0.6268078466
N -2.7433185362 2.6683689742 0.6752175159
C -0.8379190554 1.5371423184 1.5963836518
F -0.9066939603 0.4099239712 2.3787616583
F 0.3789087743 1.4586545280 0.9312267421
C -1.9963706364 -0.6884589168 -0.7992873565
O -2.7627370680 -1.3838009647 -1.4572651542
N -0.7253287635 -1.0646766484 -0.4443998677
C -0.0984612767 -2.2983278642 -0.6938990310
C 1.3087477679 -2.3565205196 -0.6064229848
C 1.9524944825 -3.5884343027 -0.7366528660
C 1.2047309711 -4.7242251387 -0.9819529956
C -0.1732578063 -4.6831915483 -1.0962404202
C -0.8263408892 -3.4674010890 -0.9441684439
F 1.8435805711 -5.9079652090 -1.1241319490
C 2.1248413620 -1.1425528201 -0.3708378904
C 2.0721455424 -0.0706828807 -1.2651143332
C 2.8416147935 1.0667582149 -1.0531993192
C 3.6811056831 1.1448722806 0.0607748260
C 3.7460190477 0.0757497703 0.9489106833
C 2.9750929757 -1.0572772767 0.7352876523
Cl 4.6453763372 2.5600793575 0.3652885111
Cl 2.7321722383 2.3793173343 -2.1901776253
H -5.1009414240 3.8216398900 0.4482525728
H -5.4908993669 3.0406910894 -1.1084975197
H -4.2482424868 4.3206518297 -1.0352889745
H -4.2119125425 0.9189359166 -1.6490537592
H -0.8154123578 2.4202796713 2.2421383847
H 1.4314842832 -0.1202076090 -2.1387635768
H 3.0334500066 -3.6517974394 -0.6785292121
H -0.7278432032 -5.5935513695 -1.2925408966
H 4.3969845318 0.1475710228 1.8124314146
H 3.0171274922 -1.8791521962 1.4421546346
H -1.9029596855 -3.4166584141 -1.0154985857
H -0.1397347196 -0.3608667926 -0.0159680602
