52
CONF626
C -0.6949703987 -3.9810831810 1.1484109994
C -1.3926267157 -2.8223557489 0.4908433459
C -1.4070948936 -1.5684228043 1.0940473356
C -2.0682205700 -0.4912708480 0.4926371808
C -2.7191393797 -0.6562488640 -0.7305705527
C -2.6984484217 -1.9161141306 -1.3325405946
C -2.0487073346 -2.9887697666 -0.7369727877
O -2.0176990470 0.6867709035 1.1850182377
C -2.5520784134 1.8596351781 0.5571495019
C -2.2048288946 3.0650350160 1.4335921401
C -0.7346631479 3.1060377201 1.8340806146
N 0.1202991377 3.0737637582 0.6446175055
C 1.5456955840 3.1435730955 0.9843373149
C 2.3995911759 2.7964512194 -0.2396026546
C 2.0794710001 1.4243301759 -0.7838318181
C 2.3887425396 0.2810209399 -0.0278391751
C 2.0747788515 -0.9907480032 -0.4897112643
C 1.4370016265 -1.1455162684 -1.7449213457
C 1.1139697825 -0.0152660077 -2.4841353797
C 1.4330823215 1.2603395942 -2.0024493006
O 1.1924819214 -2.4310862928 -2.1257368978
C 0.5170882076 -2.6219880984 -3.3740425105
O 2.3395846055 -2.1494558447 0.1766965881
C 2.8923586719 -2.0358751138 1.4936807296
O -2.5875259113 4.2457827186 0.7163111805
H 0.0288658834 -3.6384341840 1.8922224628
H -1.4180591762 -4.6298854843 1.6568708805
H -0.1717341865 -4.5938334844 0.4082676294
H -0.8982851792 -1.4048522887 2.0402344718
H -3.2351561291 0.1641426336 -1.2137787782
H -3.2003528849 -2.0503864848 -2.2863550371
H -2.0348934786 -3.9582313699 -1.2267272655
H -2.1120318139 1.9890244792 -0.4425194853
H -3.6410576925 1.7786140503 0.4467086152
H -2.8151637389 3.0457874460 2.3434150373
H -0.5561641486 4.0446899339 2.3743252907
H -0.5223045352 2.2794814476 2.5332909451
H -0.0201387660 2.1770737670 0.1822350655
H 1.7998693006 2.4522765720 1.8094200619
H 1.7834489222 4.1580812662 1.3290160226
H 3.4550849567 2.8511344342 0.0522820568
H 2.2334554192 3.5443535980 -1.0225845177
H 2.8858777060 0.4024397073 0.9281321860
H 0.6155022423 -0.1115500438 -3.4411645473
H 1.1726568953 2.1309082308 -2.5975222741
H -0.4696648118 -2.1442997948 -3.3621408301
H 1.1113573565 -2.2274268663 -4.2070537757
H 0.3994404877 -3.7005194128 -3.4843318006
H 2.9813874568 -3.0573858817 1.8646514998
H 3.8823885015 -1.5653936047 1.4682442648
H 2.2264406983 -1.4607623945 2.1484141719
H -1.8889110007 4.3964154136 0.0613950541
