49
CONF36
C -1.5454490648 1.5995006319 4.9454805938
C -1.6440003112 2.3216134379 3.7583833192
C -1.4068636257 1.7016136321 2.5356549769
C -1.0426932711 0.3567389784 2.5153102107
C -0.9366935730 -0.3780597715 3.6964098266
C -1.1966114735 0.2508755605 4.9092189741
N -0.7787865073 -0.2537643111 1.2561450246
C 0.2645339076 0.1247695384 0.4262427144
O 0.8193318159 1.2101013788 0.4582669532
C 0.6029774865 -1.0652570960 -0.4429098668
C -0.3138902052 -2.1627242692 0.0550205101
O -0.4513707015 -3.2802731398 -0.4069186702
N -1.0560090731 -1.6386498350 1.1015716731
C -2.3435787355 -2.1214514944 1.4707283992
C -2.4518242089 -3.4306073122 1.9359968766
C -3.7064493135 -3.9297427492 2.2715592602
C -4.8366447667 -3.1218620689 2.1707412316
C -4.7113206736 -1.8088668801 1.7209467336
C -3.4671714438 -1.3017872617 1.3616970015
C 0.3912165548 -0.8433059065 -1.9533579433
C 1.2318409583 0.2761903126 -2.5459448056
S 3.0416176700 -0.1198928404 -2.4205911401
O 3.2655707561 -1.3279897861 -3.3320070848
C 3.6105765585 1.3563911223 -3.3190287882
C 4.0029849949 1.2248089764 -4.6441974164
C 4.4650140387 2.3524969486 -5.3204373777
C 4.5319686202 3.5823104169 -4.6692849939
C 4.1423002228 3.6921767012 -3.3345507166
C 3.6852129729 2.5725120463 -2.6454507678
H -1.7447872747 2.0840697994 5.8956029287
H -1.9226425986 3.3702072879 3.7788400824
H -1.5054107514 2.2475052989 1.6046964173
H -0.6550077006 -1.4248991658 3.6673297671
H -1.1185424996 -0.3174262839 5.8304469211
H 1.6477080316 -1.3381475843 -0.2428799509
H -1.5633889231 -4.0431766686 2.0349774780
H -3.7951910351 -4.9507390375 2.6283570288
H -5.8110551289 -3.5115132445 2.4463828365
H -5.5875983125 -1.1737221337 1.6404676358
H -3.3707642120 -0.2837206639 1.0006070481
H 0.6026876846 -1.7885704799 -2.4634067601
H -0.6636385460 -0.6071919591 -2.1358161777
H 1.0240359479 0.3928299224 -3.6149081823
H 1.0841880265 1.2304451038 -2.0316791619
H 3.9494618109 0.2555578636 -5.1298226676
H 4.7748809641 2.2673706966 -6.3572599637
H 4.8951433187 4.4566429287 -5.1998177235
H 4.2022096789 4.6487954720 -2.8254094951
H 3.3919209159 2.6478189939 -1.6017416776
