47
CONF50
C -3.9405173823 -1.2025965347 0.2712721970
C -2.4555130509 -1.3995348378 0.4779733452
C -1.9573490274 -2.3222555574 1.5652125048
C -1.8809205765 -0.8065238130 1.7668353345
C -0.5554814906 -0.1726847803 1.7779951683
O 0.4852054761 -0.6384367165 1.3646252089
O -0.6452844021 1.0829245463 2.3203396833
C 0.5885618911 1.8569741564 2.2765506113
C 0.5101988222 2.7846876547 3.4026532911
N 0.4715879963 3.5306413963 4.2828830476
C 0.7220056027 2.5684296728 0.9495033192
C 1.6233993877 2.0681627062 0.0143480584
C 1.6914217308 2.6636069392 -1.2427654746
C 0.8959248113 3.7606563934 -1.5595287680
C 0.0120374688 4.2591712818 -0.6068706961
C -0.0879271594 3.6642024216 0.6460852976
O 2.5891378756 2.2400309455 -2.2004288586
C 2.8649957837 0.8827031378 -2.3016575888
C 1.8509281410 -0.0717036832 -2.2616129766
C 2.1810980209 -1.4125465535 -2.4342689273
C 3.5037726991 -1.7942648111 -2.6558305199
C 4.5022717412 -0.8238164930 -2.7052472693
C 4.1889543071 0.5212381714 -2.5238228697
C -2.8633179800 -3.0933225399 2.4183607465
C -2.6403082399 -4.3335490578 2.8540318693
Cl -3.7799913485 -5.1834484855 3.8667225813
Cl -1.2132993598 -5.2611400849 2.4785755612
C -1.6518980479 -1.3439727664 -0.8005105012
H -4.3445234335 -2.0281245629 -0.3250793525
H -4.1132599713 -0.2712350977 -0.2775176981
H -4.4946307642 -1.1489655498 1.2104086546
H -0.9951780977 -2.7774505715 1.3519294200
H -2.6120814625 -0.3567180485 2.4297808785
H 1.4415540852 1.1887312666 2.4402574619
H 2.2523315881 1.2192382560 0.2568512339
H 0.9750401014 4.2102654349 -2.5436288706
H -0.6096719866 5.1142388607 -0.8508934142
H -0.7895386324 4.0480688000 1.3801523109
H 0.8214777699 0.2297937712 -2.0984662531
H 1.3948148849 -2.1605647013 -2.4040948351
H 3.7531532778 -2.8413761232 -2.7918580908
H 5.5344824928 -1.1114085540 -2.8788138937
H 4.9550926568 1.2888860456 -2.5533328494
H -3.7951198069 -2.6325407678 2.7317408114
H -0.5923185150 -1.5415926440 -0.6321050385
H -1.7540346534 -0.3589981369 -1.2703023236
H -2.0372817522 -2.0938797028 -1.4994048265
