76
CONF2
C -0.7724195255 -1.8398321836 -1.1776570768
C -1.9680406749 -1.0547186695 -0.6639189778
C -3.2437736950 -1.4995865273 -1.3237052548
C -4.4626379327 -1.3034334195 -0.8106842077
C -5.7124449530 -1.7656682236 -1.5214568766
O -5.5056360129 -2.4002826896 -2.7721792845
C -4.7394385264 -0.5937491308 0.4975545130
C -3.8110056763 0.5900355831 0.8524170649
O -2.8799960567 0.2493105945 1.9041074094
C -4.5613573723 1.8232780456 1.4174303491
O -5.4160295063 1.7572280695 2.2840401467
C -4.0039829810 3.0290639920 0.7938488567
C -4.4284607639 4.3961784086 1.2034014294
C -3.1308611064 2.6539575186 -0.1610569109
C -3.0489615494 1.1681258090 -0.3460556922
C -1.7212391519 0.4911766056 -0.7484838884
O -1.5238489239 0.9391979938 -2.0844060926
C -0.4837249407 0.8120864903 0.1352003184
C -0.1849531296 2.3037207665 0.2873219114
C 0.7695231032 0.1365129171 -0.4516157554
O 1.7840656447 0.1193100190 0.5929233673
C 3.0546087691 0.4399269208 0.2384180660
O 3.3546997701 0.7596356547 -0.9084930657
C 3.9871231694 0.3610248655 1.3663444431
C 3.5297778316 -0.0224744621 2.6369879924
C 4.3802680194 -0.1152189042 3.7221866314
C 5.7333992299 0.1843661146 3.5439881855
C 6.2236853023 0.5673046711 2.3108292675
C 5.3734868105 0.6688724953 1.1858442009
N 5.8664557409 1.0454994062 -0.0201533788
C 7.2523183530 1.3789593040 -0.2568797861
C 0.6070362603 -1.2538023359 -1.0133542101
O 1.6064841579 -1.5412832332 -2.0079905867
C 1.5392577784 -0.8948283712 -3.1879848014
C 2.7497501987 -1.1804092249 -4.0223339867
O 0.6291827803 -0.1599916835 -3.5171065935
C 0.2269469482 -2.4773762258 -0.2221139140
C 0.0445656717 -2.4063464146 1.2779080996
C 0.8308472727 -3.7978628759 -0.6600234770
H -0.9273724521 -2.3859027358 -2.1051063017
H -2.0722744080 -1.2566888253 0.4066132668
H -3.1620373727 -2.0252994007 -2.2717955359
H -6.2360724732 -2.5000555485 -0.8935546360
H -6.3977184294 -0.9049645542 -1.6226334737
H -5.1228822259 -1.7484124207 -3.3711167362
H -5.7745538745 -0.2272631495 0.4905505438
H -4.6979748012 -1.3170288752 1.3231331297
H -3.4024126999 0.1782154072 2.7153445130
H -4.1676304874 4.5797058896 2.2513405484
H -3.9587628276 5.1632038405 0.5835676345
H -5.5164419456 4.4966663490 1.1320962588
H -2.6000456859 3.3341312327 -0.8187329377
H -3.6658027560 0.9576901913 -1.2317585419
H -0.7789159897 0.4661743617 -2.5008437571
H -0.6774019339 0.4018040007 1.1274715424
H -0.9302343980 2.7938095014 0.9179182717
H -0.1635876355 2.7939978701 -0.6911380084
H 0.7895772160 2.4437451731 0.7649477426
H 1.1428710263 0.7703768375 -1.2612615083
H 2.4772398445 -0.2485635935 2.7542141117
H 4.0023293405 -0.4130050132 4.6933100504
H 6.4178110197 0.1180879929 4.3845435237
H 7.2772938429 0.7946787581 2.2045244914
H 5.1919756588 1.1061942428 -0.7709657322
H 7.5823963377 2.2348936038 0.3490393480
H 7.9220788621 0.5332162759 -0.0465254837
H 7.3688324685 1.6469608645 -1.3089478262
H 2.5652084614 -0.8818509911 -5.0533969620
H 3.5788163723 -0.5928274743 -3.6136258558
H 3.0284451959 -2.2344058321 -3.9611537260
H 1.0003071527 -2.6115844650 1.7710329589
H -0.6741535207 -3.1693938133 1.5979132857
H -0.3084446941 -1.4411569061 1.6380509378
H 1.8474439255 -3.9085528839 -0.2674337815
H 0.2218091664 -4.6187220447 -0.2666125560
H 0.8756148839 -3.8957811174 -1.7456408210
