60
CONF2
C 0.5481490015 1.2052949265 -0.8542662698
C 1.4346299506 1.8173790261 -1.9446786180
C 2.8026336945 2.0425213993 -1.2409839784
C 2.6821808543 1.4166473133 0.1700062120
O 2.3626550973 2.3961882413 1.1668791250
C 3.9476838759 0.7577572979 0.6750401770
O 4.7230466454 0.1913663484 -0.0778238369
C 4.1645652706 0.7993627509 2.1774885993
O 5.2824349010 0.0183109841 2.6162481569
S 5.1528463482 -1.6216966532 2.4567460403
O 6.0344378807 -1.8618543985 1.1348589119
O 3.7458075585 -1.9255592976 2.1934252212
O 5.8765714773 -2.2133380296 3.5562930462
C 1.5199471020 0.3492034709 -0.0194781329
C 2.0547860284 -0.8551333971 -0.8114250566
C 0.8121175728 -0.0792906991 1.2626957414
C -0.5261646676 -0.7934841149 0.9961961962
O -0.3274174115 -2.1152551082 0.4773186337
C -1.4431076656 -0.0100573316 0.0379474227
C -0.7354892052 0.4762840916 -1.2467414509
C -1.6548651858 1.4317493176 -2.0120707685
C -3.0323160662 0.8240472913 -2.2790875773
C -3.6716485559 0.2866982604 -1.0334465753
C -4.9384846857 0.6139226755 -0.7109868844
C -5.6993778205 -0.0296323784 0.3640562390
O -6.8392990313 0.3122162667 0.6429759676
C -5.0089422636 -1.1927254645 1.0425551304
C -3.5048077516 -0.9573787949 1.1408323452
C -2.8352857167 -0.6898013052 -0.2210412878
C -2.7554433627 -2.0006491664 -1.0423247998
H 0.2056663217 2.0278542387 -0.1990443166
H 1.0247257719 2.7480670464 -2.3449502386
H 1.5363933206 1.1215400439 -2.7839353440
H 3.6236779193 1.5741758107 -1.7873931083
H 3.0506040074 3.1019409390 -1.1301866814
H 1.6062325804 2.9075699566 0.8600863174
H 3.2433076865 0.5156259637 2.6975000727
H 4.3996047537 1.8280604662 2.4692812612
H 5.7191810660 -1.1883383329 0.4780177564
H 2.6990954438 -0.5528141522 -1.6391843552
H 2.6438648337 -1.5053456930 -0.1591342076
H 1.2320681515 -1.4509943613 -1.2045311077
H 1.4441766767 -0.7477282124 1.8624636166
H 0.6088046651 0.8054114274 1.8779984836
H -1.0410841563 -0.8668328988 1.9665267728
H 0.3479823817 -2.5454467043 1.0155203684
H -1.6866366396 0.9109460868 0.5962863667
H -0.4908615374 -0.3783912341 -1.8903521234
H -1.1915863297 1.7249180562 -2.9607128296
H -1.7791096133 2.3491280898 -1.4182102364
H -3.6938951116 1.5551926372 -2.7534319952
H -2.9189347286 -0.0081282042 -2.9891469316
H -5.4913660765 1.3343323211 -1.3099095198
H -5.4619330849 -1.3464992125 2.0255763823
H -5.2233258977 -2.0908490593 0.4469128478
H -3.0237970692 -1.8166006417 1.6195773504
H -3.3377495642 -0.0867151893 1.7901516812
H -2.0966499317 -1.8980334415 -1.9069644642
H -3.7500536764 -2.2666985449 -1.4136457329
H -2.3702460529 -2.8165139395 -0.4323731305
