30
CONF13
N 5.5200398656 -0.4848454528 0.6332243262
C 4.1808834153 -0.2551917575 0.5589312442
N 3.7739300747 0.9450887557 1.0486585904
C 2.4762045698 1.2229020693 0.9482396472
N 2.0156372220 2.3928249216 1.4180847445
C 1.5688618602 0.2863747040 0.3485843505
N 0.2622585633 0.5785082083 0.2187168025
C -0.5304801208 -0.3087854918 -0.3504271672
C 0.0125846617 -1.5871466267 -0.7611958601
N -0.7949330218 -2.5478393959 -1.2782775111
N 1.3069515188 -1.8738475292 -0.6497378499
C 2.1172510482 -0.9361916539 -0.1091357706
N 3.4352555186 -1.2128885705 -0.0074806471
C -1.9597007381 0.0411464701 -0.4971874154
C -2.6347384234 0.6350531692 0.5780700886
C -3.9681841147 1.0077623592 0.4564695294
C -4.6480314811 0.7991112557 -0.7426262424
C -3.9829270818 0.2197069297 -1.8205649924
C -2.6493636984 -0.1600554980 -1.7008772279
H 6.0684970996 0.1074794509 1.2349763600
H 5.8456400952 -1.4247727586 0.4759985331
H 1.0390269016 2.6181967432 1.3249891481
H 2.6525345134 3.0633340726 1.8152863242
H -1.7917267512 -2.4781619603 -1.1518511142
H -0.4077350177 -3.4756821801 -1.3605462934
H -2.1037194261 0.7946717879 1.5109891743
H -4.4802506620 1.4588444487 1.3008259381
H -5.6895436778 1.0897645145 -0.8369351167
H -4.5003086481 0.0698448970 -2.7630052178
H -2.1339136520 -0.5852057924 -2.5565378813
