33
CONF12
C -3.5943128610 1.7268285921 -0.2822681987
C -4.8352925513 1.0569848263 0.2998447215
C -4.7352939211 -0.4619802688 0.3953440281
S -3.4578855422 -1.0797303077 1.5830885877
C -1.9710578839 -1.1600134153 0.5877985499
C -1.9378401344 -1.9148466796 -0.6001033587
C -0.7805810112 -2.0239089989 -1.3610820476
C 0.3730325394 -1.3903927495 -0.9006384789
C 0.3286650834 -0.6596474636 0.3091451316
C -0.8260828047 -0.5163562681 1.0640399498
N 1.6120989607 -0.1692300918 0.4775268037
C 2.3333826360 -0.6152471711 -0.5959411472
N 1.6469840321 -1.3456314875 -1.4474701327
N 3.6718847499 -0.3265563612 -0.7769638065
C 4.4433561152 0.4263023458 0.0731000449
O 4.0510020444 0.9459371858 1.1033487944
O 5.7008792793 0.5001836688 -0.4027163335
C 6.6120832358 1.2724016875 0.4156078505
H -3.7535509386 2.8027243867 -0.4016944143
H -3.3456608207 1.3079053451 -1.2638013586
H -2.7279291011 1.5828132860 0.3691595884
H -5.7064011084 1.2830053291 -0.3312647319
H -5.0530731752 1.4675382953 1.2928412639
H -4.5276157683 -0.9069470311 -0.5831435878
H -5.6762228603 -0.8874726268 0.7590751452
H -2.8347596664 -2.4327301913 -0.9230139425
H -0.7670245629 -2.6026700714 -2.2786912025
H -0.8533942874 0.0737179564 1.9736676308
H 1.9875733520 0.4008335422 1.2217040463
H 4.0975704873 -0.7149875794 -1.6066957456
H 6.2623940412 2.3038105340 0.4995905705
H 7.5661602026 1.2307964796 -0.1078591504
H 6.6969137533 0.8265656096 1.4091861585
