37
CONF415
C -2.4375468463 -0.0045471176 -2.7214377943
C -1.7020612859 -1.2684463825 -2.3387608543
O -0.5299180704 -0.9575186728 -1.5131743905
P -0.7018887271 -0.9044617034 0.0677604089
O -1.7567396525 -0.0314951108 0.6335719738
O -0.7975538886 -2.4462570407 0.4592439269
C -1.3359847512 -2.8268631386 1.7712784303
C -0.3521194138 -2.5425114229 2.8840045299
O 0.8112191343 -0.4984422251 0.4708081895
P 1.3112595093 0.8894652345 1.1881810362
O 1.1111596077 0.9210019001 2.6482536767
O 2.8315861063 0.9090163697 0.7457116183
C 3.2181186608 0.7886027673 -0.6652364254
C 3.9267921100 -0.5279714265 -0.8772315115
O 0.6130390360 2.0341526164 0.3272976821
C -0.4365149974 2.8793716740 0.9168357078
C -1.2537461796 3.4330162878 -0.2227631010
H -2.8561166576 0.4838391906 -1.8381181117
H -3.2561129473 -0.2559721193 -3.4036730048
H -1.7647278894 0.6922821282 -3.2291481223
H -2.3486756411 -1.9708076025 -1.8004695917
H -1.2902608259 -1.7789680343 -3.2124098883
H -1.5330596767 -3.8963356625 1.6697935946
H -2.2827859209 -2.2987678177 1.9209464672
H -0.1839964162 -1.4689082048 3.0111853610
H -0.7554143071 -2.9359180028 3.8227167406
H 0.6075013516 -3.0291109270 2.6879999034
H 3.8732968926 1.6419017060 -0.8592539798
H 2.3322229840 0.8779805294 -1.3020408685
H 3.2538715273 -1.3659838230 -0.6780859949
H 4.2664997040 -0.5931688562 -1.9159126677
H 4.7978369447 -0.6076814823 -0.2213626471
H -1.0452629752 2.2699566039 1.5878816417
H 0.0625403752 3.6672896365 1.4892091185
H -1.7354371125 2.6200618174 -0.7722944930
H -2.0311505209 4.0905508841 0.1784738448
H -0.6298684466 4.0116471204 -0.9097799925
