63
CONF287
C 3.2694713666 -0.9322585630 0.9341723613
C 1.7912716663 -1.3058834742 0.9752374611
N 0.9451618615 -0.1107814303 1.0950236633
C 1.1456277606 0.7536766363 -0.0764421674
C 2.5948617536 1.2203537106 -0.1720298355
C 3.5272214522 0.0118402331 -0.2399418663
N 4.9361391194 0.4040884337 -0.3375321038
C 5.7845396719 0.1187790887 -1.4022138751
C 5.5816246151 -0.5660875322 -2.5920130112
C 6.6665385719 -0.6761332182 -3.4675155843
C 7.9101773269 -0.1201061915 -3.1602270907
C 8.1170219731 0.5695321133 -1.9620448422
C 7.0414697487 0.6779737856 -1.0959800941
N 6.9118821126 1.2810848272 0.1408840512
C 5.6247886022 1.1286288869 0.6325616234
O 5.1919608147 1.5499695658 1.7036531993
C -0.4636376852 -0.5098086277 1.2270509799
C -1.3854750408 0.6527937114 1.5915894097
C -2.7824992340 0.2028863631 2.0261606979
C -3.5785481017 -0.5205169175 0.9233605268
C -4.9336029285 -1.0333004514 1.3873223590
C -5.5228517552 -2.0941112430 0.6889869240
C -6.7761182976 -2.5870619749 1.0351687902
C -7.4365136271 -1.9963868212 2.0999857934
C -6.8955166295 -0.9492921639 2.8219377234
C -5.6368138004 -0.4725149942 2.4559061158
F -8.6628442272 -2.4700553239 2.4519819867
C -3.7361872407 0.3607291452 -0.3053862313
C -3.1096731769 0.0300880651 -1.5080903326
C -3.2198375546 0.8498948621 -2.6306190087
C -3.9707534777 2.0056271697 -2.5216870460
C -4.6166943348 2.3702680428 -1.3511800213
C -4.4931132682 1.5354536929 -0.2456046818
F -4.0835707114 2.8175506833 -3.6081203192
H 3.8762629041 -1.8379967403 0.8237600431
H 3.5536401422 -0.4414413800 1.8703064110
H 1.5995691221 -1.9549831081 1.8371025255
H 1.5322600424 -1.8849609097 0.0638507308
H 0.8603869423 0.2207643449 -1.0086695464
H 0.4965143301 1.6298294848 0.0072622184
H 2.8441868596 1.8273464041 0.7039281396
H 2.7233145937 1.8400970562 -1.0664630438
H 3.3073755254 -0.5333877332 -1.1654930652
H 4.6218171456 -1.0033973312 -2.8430375777
H 6.5337992658 -1.2066842959 -4.4046647512
H 8.7319822968 -0.2230012535 -3.8611670972
H 9.0801790017 1.0042877678 -1.7167515242
H 7.6311004092 1.7742846834 0.6457610798
H -0.5192959936 -1.2617341376 2.0258033417
H -0.8146064292 -1.0023848008 0.2987804238
H -0.9244808420 1.2123692986 2.4146171842
H -1.4848249892 1.3468456364 0.7492744365
H -2.7052640526 -0.4640251285 2.8949487457
H -3.3390363614 1.0886721537 2.3521846680
H -3.0056104503 -1.4014828600 0.6118879058
H -4.9895800782 -2.5432303077 -0.1448712752
H -7.2320606284 -3.4117093362 0.4977815019
H -7.4437825254 -0.5183683431 3.6528510991
H -5.2113840232 0.3467165008 3.0245787060
H -2.5232005576 -0.8818521888 -1.5749622564
H -2.7341783281 0.5991783514 -3.5676146349
H -5.2012659885 3.2832681064 -1.3124332281
H -4.9993212673 1.8050974913 0.6770941741
