52
CONF32
C -4.9965793419 0.0637041000 -1.6098220242
C -4.0569047133 0.3147168336 -0.4294580617
C -4.7783220735 1.0631194813 0.6912472186
C -2.8204658514 1.1202871062 -0.8885025899
C -1.8070177301 1.3840794750 0.2117679999
C -1.2607113394 0.3444858613 0.9694842143
C -0.3342524842 0.5994977504 1.9734910149
C 0.0533553881 1.9124922448 2.2150189197
C -0.4630666023 2.9655003044 1.4720348375
C -1.3896532678 2.6897828031 0.4725154681
Cl 1.2142689430 2.2474487591 3.4883491685
C -2.0795186215 0.4806820469 -2.0487452361
O -1.6947018318 1.0561263003 -3.0361597287
O -1.8523870096 -0.8430220459 -1.8082136753
C -0.9054351230 -1.4796108546 -2.7188091873
C -1.2637392246 -2.8946290562 -2.7381280816
N -1.5302744507 -4.0177194341 -2.7628812145
C 0.5020849450 -1.2329724918 -2.2316666920
C 0.9498633034 -1.8713477900 -1.0780176323
C 2.2108999574 -1.5712318566 -0.5769923647
C 3.0350733281 -0.6533800592 -1.2297313289
C 2.5724821879 -0.0247991469 -2.3791107362
C 1.3066095784 -0.3022625374 -2.8857230516
O 2.6066489997 -2.2792495840 0.5323309849
C 3.5280259815 -1.7231031539 1.4065304887
C 3.3967454452 -0.4192933050 1.8767245250
C 4.3099051627 0.0535558425 2.8128228725
C 5.3350367206 -0.7658132784 3.2790792030
C 5.4447616008 -2.0699741766 2.8053074972
C 4.5433416822 -2.5549785832 1.8631913863
H -4.5133122684 -0.5170639327 -2.4017977390
H -5.3364550325 1.0124808716 -2.0411571369
H -5.8805287268 -0.4918288782 -1.2833769832
H -3.7124836346 -0.6525120657 -0.0446636001
H -5.6516990855 0.4960446281 1.0266448439
H -5.1290211916 2.0407188077 0.3393757412
H -4.1261304196 1.2270875283 1.5536626651
H -3.1629968890 2.0864929744 -1.2749166292
H -1.5553462685 -0.6809517465 0.7769740913
H 0.0822744696 -0.2105217091 2.5616950880
H -0.1487117845 3.9828811951 1.6730918399
H -1.7958315880 3.5093857724 -0.1126207759
H -1.0423583944 -1.0595822971 -3.7215100155
H 0.3351043241 -2.6035287967 -0.5641046252
H 4.0236750338 -0.4391130907 -0.8401095801
H 3.2114754303 0.6897542544 -2.8873219616
H 0.9380742262 0.2087304501 -3.7680086665
H 2.5920108565 0.2131700514 1.5168649453
H 4.2068120541 1.0673809837 3.1850509306
H 6.0412674720 -0.3903942437 4.0116181679
H 6.2382678931 -2.7161580147 3.1664622377
H 4.6098401921 -3.5673017908 1.4802125448
