41
CONF124
O 8.8765275998 0.2427444530 0.1783826789
N 8.1166576633 -0.0053410710 -0.7618652434
O 8.5110691061 -0.2303496682 -1.9094302502
C 6.6876625729 -0.0333306245 -0.5053464131
C 6.2229777234 0.2167985404 0.7866358408
C 4.8617964312 0.1834134898 1.0201728754
C 3.9574142786 -0.0897903519 -0.0227713818
C 4.4536276257 -0.3429919731 -1.3191587724
C 5.8117812041 -0.3148050078 -1.5589221001
N 2.6070562254 -0.1032858958 0.3396325342
N 1.8022219429 -0.2479295706 -0.6434860348
C 0.4629213942 -0.2993560929 -0.3327139871
C -0.4226065766 -0.4356411450 -1.4217962490
C -1.7831358704 -0.4982604911 -1.2418069930
C -2.3473920843 -0.4394590682 0.0635851992
C -1.4444629874 -0.2892118233 1.1614174851
C -0.0890050803 -0.2254329344 0.9681028898
N -3.6881617072 -0.5371054398 0.2614191155
C -4.2662594731 -0.4653827477 1.6021711905
C -4.4197027843 0.9709458289 2.1016730595
O -4.8422575756 0.8798451096 3.4652888299
C -4.6213004883 -0.6152521638 -0.8725628142
C -4.8851570180 0.7325502278 -1.5426096102
H 6.9210966916 0.4308861624 1.5858142521
H 4.4693801743 0.3709679452 2.0141594401
H 3.7643814921 -0.5656540993 -2.1240474431
H 6.2040095147 -0.5104496775 -2.5491939925
H -0.0053486504 -0.4881917421 -2.4229316868
H -2.4167745988 -0.5948706774 -2.1128664052
H -1.8211575503 -0.2173280919 2.1733908740
H 0.5684503433 -0.1130502516 1.8223014127
H -5.2473423633 -0.9465171514 1.5752502731
H -3.6526809624 -1.0332283016 2.3094450270
H -5.1633862052 1.5023394360 1.4933160736
H -3.4607831161 1.5029668125 2.0173892081
H -5.0496920220 1.7707216359 3.7715655037
H -4.2381764481 -1.3384815625 -1.5997145085
H -5.5571902957 -1.0272268004 -0.4879889304
H -3.9595553358 1.1898369695 -1.9031217104
H -5.3665622701 1.4274216639 -0.8494706968
H -5.5509402500 0.5864853191 -2.3986685512
