52
CONF7
C -3.5376621881 -1.9335931920 -0.1581601144
C -2.3415231996 -2.1454156917 0.7268141057
C -1.0598949806 -1.8439252292 0.2477669434
C 0.0514192628 -2.0127572388 1.0709638956
C -0.1030522066 -2.4765501964 2.3823851739
C -1.3720346414 -2.7702061842 2.8521735177
C -2.4888607808 -2.6092813174 2.0323493274
O 1.3385030595 -1.7497751717 0.6954042729
C 1.5856554997 -1.2094222453 -0.6093467644
C 3.0930684315 -1.0406943714 -0.7287865000
C 3.7026115719 -0.2493468763 0.4494589565
N 3.0723962419 1.0254063806 0.7688185104
C 3.3083723872 2.0884647060 -0.2069255050
C 2.2181851167 3.1618117857 -0.1019169939
C 0.8838124689 2.6360414568 -0.5688567400
C -0.0793980491 2.1874270263 0.3470371515
C -1.2797805974 1.6287725890 -0.0833907038
C -1.5338912996 1.5098253772 -1.4687105786
C -0.5811984561 1.9543148050 -2.3763732209
C 0.6177450194 2.5109619621 -1.9267517214
O -2.7311672616 0.9476269337 -1.7986546644
C -3.0204821453 0.7989873376 -3.1834379411
O -2.2657870185 1.1739523147 0.7303030165
C -1.9678439854 1.0566971527 2.1209707122
O 3.7480505050 -2.3065462664 -0.8475620874
H -3.3529678613 -2.3140814053 -1.1679848367
H -4.4198946550 -2.4377015959 0.2441935840
H -3.7527807100 -0.8637431350 -0.2487993128
H -0.9539816777 -1.4658300305 -0.7631759772
H 0.7778443772 -2.5992240313 3.0030901110
H -1.4942412077 -3.1339516767 3.8678085722
H -3.4787939808 -2.8481005396 2.4089265309
H 1.2367457392 -1.9055298693 -1.3841247678
H 1.0656435865 -0.2472815307 -0.7311016864
H 3.2852140893 -0.5273226407 -1.6782812597
H 3.6591122711 -0.8920054925 1.3381095628
H 4.7644551145 -0.0826264546 0.2304263653
H 2.0744076725 0.8836871264 0.8866947528
H 3.3255482548 1.7279524017 -1.2520529553
H 4.2916162106 2.5387350343 -0.0082731766
H 2.5129619789 4.0209881864 -0.7143660062
H 2.1550623518 3.5055722554 0.9370466709
H 0.1153001169 2.2921774287 1.4089427875
H -0.7623036356 1.8760254442 -3.4414080472
H 1.3483864456 2.8527153711 -2.6541708132
H -4.0027446917 0.3267153003 -3.2321721352
H -3.0578642777 1.7720975124 -3.6906733093
H -2.2814492899 0.1561695367 -3.6807046886
H -2.8380395186 0.5753869378 2.5681998005
H -1.0858088003 0.4231420101 2.2798543142
H -1.8147927190 2.0418331869 2.5804647158
H 3.5476303136 -2.8023470557 -0.0433659869
