44
CONF16
C -3.2708296119 -0.4732670418 -1.1268189071
C -2.9492238211 0.0757158255 0.2717969218
C -3.9920781572 -0.4475487304 1.2619857812
C -2.9576458959 1.6204383485 0.2375100172
C -1.5709750901 2.0551064108 -0.2802291964
C -0.6667410140 0.8013137070 -0.1930136135
C 0.7552096181 1.1002922491 0.3033433770
C 1.5004020562 1.9711595089 -0.6749249247
C 1.6959492451 3.3329368621 -0.4346958223
C 2.3497410234 4.1463912504 -1.3578863245
C 2.8134631651 3.5778006933 -2.5360648857
Cl 3.6462637217 4.5935089136 -3.7141236390
C 2.6430504467 2.2253818367 -2.8085743398
C 1.9857247124 1.4344746057 -1.8722453834
C -1.4603228134 -0.2014562703 0.6774990335
O -1.2394074424 0.1753259148 2.0432650780
C -0.9414321256 -1.6269170611 0.4354776537
N -1.6844894698 -2.6534453310 1.1609024414
C -2.3942345679 -3.6909083421 0.6792840506
N -2.9552474026 -4.3697309567 1.6755134519
C -2.5463347076 -3.6818859222 2.7744228799
N -1.7690409080 -2.6356836549 2.5145519890
H -4.2805184231 -0.1578463565 -1.4098765836
H -2.5818465385 -0.1013481788 -1.8910088498
H -3.2533206772 -1.5675050831 -1.1519678107
H -3.7661761152 -0.1383272269 2.2863187301
H -4.0837118740 -1.5380505353 1.2344720546
H -3.1157813430 1.9983562294 1.2523812363
H -3.7803848125 1.9903022876 -0.3827618922
H -1.1614924979 2.8636403291 0.3335638115
H -1.6131805681 2.4277018930 -1.3078979220
H -0.5775492421 0.3561187195 -1.1904704139
H 1.3073699533 0.1627004222 0.4392865302
H 0.7029484547 1.5948919266 1.2769487220
H 1.3349636184 3.7722365895 0.4908877306
H 2.4963854706 5.2022762042 -1.1597734175
H 3.0193268597 1.7971079060 -3.7309337780
H 1.8518578093 0.3757109424 -2.0788651556
H -4.9713725873 -0.0320579347 0.9986131983
H 0.1064738949 -1.6843685147 0.7483908843
H -0.9999800842 -1.8845157248 -0.6243314545
H -2.4675862146 -3.9110890636 -0.3777651724
H -2.8158529870 -3.9525793335 3.7874100371
H -1.5644999804 -0.5470456561 2.6045946106
