61
CONF253
C -3.4757959641 4.6672041256 0.6570384411
C -2.8519660437 3.4355133927 0.0036466693
C -3.3793462373 2.1304306693 0.6010602158
C -2.7176425711 0.8845166857 0.0273882067
C -3.2284879935 -0.4277969929 0.6329856229
C -2.7607232768 -1.4965775857 -0.3816187797
N -2.5475964514 -0.7656178586 -1.6444647307
C -2.9748721983 0.6301556996 -1.4562383976
C -3.1082715278 -1.4150919401 -2.8224616803
C -1.4788889221 -2.1529556345 0.1320229312
O -1.5021721680 -2.8887433077 1.1396177893
N -0.3657998326 -1.8084121111 -0.5177428159
C 0.9841990978 -2.1919862615 -0.1469505260
C 1.6792927816 -1.1009573006 0.6897919154
C 1.3686562798 -1.1223495241 2.1876574726
C 2.0817665055 0.0477446670 2.8782492846
C 1.7886229589 1.3726589431 2.1537306684
C 2.0155006977 1.2676818512 0.6383734245
O 1.3237733973 0.1587666511 0.0937270198
S 3.8161260694 1.3048594059 0.1794003248
C 3.6000181106 1.7201104330 -1.5937012942
O 0.4390025361 1.7831267973 2.3937296633
O 3.4759340967 -0.2553318508 2.8687436786
O -0.0178559836 -0.9773699267 2.5038583716
C 1.7798351288 -2.5091617349 -1.4243837532
C 1.1003685670 -3.5630914395 -2.2860806238
O 3.0630390077 -2.9698087442 -0.9719864217
H -3.0917044160 5.5926222229 0.2164771191
H -4.5648051660 4.6629342688 0.5355659821
H -3.2602341892 4.6896045474 1.7311600573
H -3.0513863062 3.4527563942 -1.0753452747
H -1.7598618006 3.4668347820 0.1188800150
H -4.4658699828 2.0659469184 0.4442366656
H -3.2200607047 2.1445350267 1.6883101250
H -1.6304587051 0.9513191763 0.1853352525
H -4.3240665984 -0.4098904128 0.6632275609
H -2.4108461124 1.2908866430 -2.1243055722
H -4.0535767139 0.7624275796 -1.6707011407
H -2.8458360657 -0.8408694048 -3.7173418095
H -4.2092739046 -1.4987269105 -2.7752396219
H -2.6889320391 -2.4212214515 -2.9313110906
H -2.8615892668 -0.6167270419 1.6450489224
H 0.9286799377 -3.1086009749 0.4544339402
H 2.7626796132 -1.2507459165 0.5962974375
H 1.7649109532 -2.0623187725 2.6012520512
H 1.7013170617 0.1262799102 3.9066722243
H 2.4331123450 2.1608104141 2.5600548903
H 1.5668970849 2.1477422902 0.1659577534
H 4.5978338267 1.7732211895 -2.0352538433
H 3.0261593144 0.9383207822 -2.0973004424
H 3.1008781215 2.6863392830 -1.7051733461
H -0.1179944471 0.9940517028 2.2753289540
H 3.9354696807 0.4396045085 3.3575652224
H -0.5038661198 -1.7588823073 2.1686732671
H 1.9016722748 -1.5761387003 -1.9989391837
H 0.1519900762 -3.1970156904 -2.6889142044
H 1.7470977383 -3.8230935617 -3.1300936518
H 0.9093383983 -4.4676775890 -1.6985932483
H -3.5080707854 -2.2968191455 -0.4803098422
H -0.5202878877 -1.1474782354 -1.2770694509
H 3.6153614091 -3.1048748279 -1.7520711202
