21
CONF113
C 0.6389575504 -1.3902318970 0.0783675203
C -0.0983002095 -0.0408307555 0.0280841786
C 0.8165446716 1.0718922527 -0.4858446257
O 0.9995983122 0.9074861857 -1.9007342896
C -1.3053298502 -0.2295078127 -0.9081213931
O -1.9260847604 1.0017763148 -1.2915495821
C -0.5668974432 0.3785831517 1.4317290608
O -1.2117010525 -0.6779091281 2.1489359710
O 1.4908866818 -1.5386273486 1.2242868794
H 1.2060596754 -1.5320735803 -0.8513935932
H -0.0908297959 -2.2037422400 0.1539185442
H 0.3630140735 2.0512717681 -0.2714830287
H 1.7840707354 1.0343104990 0.0375793037
H 1.5982914888 1.6013611016 -2.2027238014
H -1.0020179081 -0.7976573169 -1.7985985189
H -2.0681947717 -0.8117690319 -0.3803925672
H -1.3149544779 1.4389885495 -1.9004207915
H 0.2848535697 0.7676990846 2.0080824266
H -1.3033606558 1.1833031153 1.3332900343
H -0.5169523211 -1.3006904326 2.4026046835
H 2.2223467839 -0.9136321938 1.1443835889
