59
CONF2151
C 2.0307776458 2.6791041884 -1.5820453465
C 3.5030172235 2.9788463748 -1.2939320652
C 4.3260622188 1.7334859712 -0.9500922273
C 3.8467173287 1.0102598319 0.3079626240
C 4.7001982279 -0.2075994888 0.6536392296
C 4.1378813583 -1.0049125985 1.8306090911
O 5.1265506827 -2.0103229548 2.1561985279
C 2.8261885663 -1.6374520087 1.4863447354
C 1.6550969820 -1.2741962128 2.0130081294
C 0.3239684897 -1.7817075349 1.5706217734
C -0.6337621475 -2.1900266833 2.7365978121
O -1.0929116569 -3.5437313018 2.5941024957
C -1.7895981562 -1.1800374325 2.6656305191
C -1.9135881734 -0.8660675689 1.1826260071
O -2.5273037086 -2.0144304449 0.5560422982
C -0.4462894190 -0.6939101309 0.7621417662
C -0.1695256549 -0.7567025419 -0.7421622197
C -0.9685362447 0.2501036028 -1.5109113898
C -1.8160275377 -0.0433268881 -2.4996058255
C -2.6469110551 0.9514056249 -3.2505084722
C -4.1541244896 0.6803518518 -3.1147872291
C -4.6300733281 0.8448760122 -1.6776876485
C -6.0950454566 0.5756017266 -1.4907262811
O -6.4757942029 0.7735363726 -0.2074544576
O -6.8715834065 0.2197181652 -2.3543340617
H 1.5077898396 2.3226905081 -0.6889618532
H 1.9337015629 1.9052734804 -2.3530649542
H 1.5070966408 3.5734905430 -1.9347647913
H 3.5753562080 3.6995369790 -0.4682714261
H 3.9493598664 3.4656867756 -2.1699105682
H 4.2919357658 1.0345971506 -1.7981577256
H 5.3789565428 2.0193401820 -0.8237734200
H 2.8084205174 0.6861590534 0.1722394185
H 3.8450006652 1.7104270045 1.1556758931
H 5.7208863668 0.1066031022 0.9073137626
H 4.7724275837 -0.8745413634 -0.2166976824
H 4.0022538457 -0.3274281861 2.6893400912
H 4.7543018505 -2.5585308321 2.8589179611
H 2.8602101053 -2.4001283267 0.7054107187
H 1.6391031729 -0.4949754286 2.7793864000
H 0.4699500563 -2.6635049092 0.9356732527
H -0.1219327066 -2.1617989029 3.7032329948
H -1.6184893046 -3.5608418738 1.7797888240
H -1.5090071041 -0.2602227932 3.1914775903
H -2.7105572132 -1.5668622497 3.1113930418
H -2.5116086988 0.0318889860 0.9774679239
H -2.5601105963 -1.8518210800 -0.3965669242
H -0.1413288109 0.2975933250 1.1292890794
H -0.3767037450 -1.7670294958 -1.1172124993
H 0.9061068164 -0.5796374586 -0.8899253566
H -0.8504978580 1.2930627130 -1.2093908557
H -1.9397285497 -1.0888843202 -2.7951231070
H -2.3889535465 0.9109447970 -4.3171674737
H -2.4191048880 1.9658347606 -2.8999571481
H -4.3765835781 -0.3358347298 -3.4608509721
H -4.7070912257 1.3663976616 -3.7651652630
H -4.0859978133 0.1710057987 -1.0027678916
H -4.4239144066 1.8572355808 -1.3061159227
H -7.4266308384 0.5814077019 -0.1406983716
