21
CONF18
C 0.6235398426 -1.3744286892 -0.0434609183
C -0.1442701799 -0.0476573103 0.0946358275
C 0.7569409640 1.1635251137 -0.1579521544
O 1.8506751303 1.1385699929 0.7831225943
C -1.3197267025 0.0010679874 -0.8882864946
O -0.8253836285 -0.0871511475 -2.2396137458
C -0.7729103373 0.0278330737 1.5028425827
O 0.1649634644 -0.1126165585 2.5724718378
O 1.3655936309 -1.4916515865 -1.2616453735
H -0.0997617340 -2.2009691877 0.0540549611
H 1.3484038898 -1.4668555488 0.7689128487
H 1.1469095347 1.1419306401 -1.1820283532
H 0.1638589061 2.0802585246 -0.0267737804
H 2.3399406497 1.9650249447 0.6916711159
H -1.9927298658 -0.8411637160 -0.6772232755
H -1.8805110875 0.9381276709 -0.7548538828
H -1.5784991944 -0.2481214699 -2.8208296613
H -1.3187808816 0.9813013425 1.5887538513
H -1.4986686843 -0.7857556472 1.6217554525
H 0.9172162141 0.4592600250 2.3459480075
H 0.7532003817 -1.2405281414 -1.9715014502
