48
CONF42
C 5.3153360689 0.8018442286 -1.1665421202
C 4.4367390650 0.9460253084 0.0728626796
C 3.4764592808 -0.2263294011 0.2797670944
C 2.5391643883 -0.3956470567 -0.9203661996
O 2.8325623083 -1.1292372830 -1.8606203171
N 1.4119308962 0.3597782172 -0.8682991927
C 0.3963527375 0.2894116503 -1.8671141137
C -0.9860121861 -0.3614317846 -1.5298670438
N -1.6345580622 0.8723219195 -2.0236404991
C -0.4376829481 1.5751503178 -2.0795868284
O -0.2036250878 2.7556191625 -2.1758972038
C -2.8218239915 1.3343645026 -1.3238363249
C -3.1375067202 0.2862010628 -0.1884801102
S -1.4503612103 -0.4182851833 0.2408268611
C -3.7149109829 0.9552562655 1.0526769251
C -4.0478890614 -0.8390249411 -0.6825300167
C -4.0033172795 1.5086916719 -2.2679397130
O -4.0878479665 1.0420317575 -3.3802373654
O -4.9588292089 2.2517423242 -1.6835546557
O 2.7537384540 0.0653083701 1.4860242413
C 1.9564666468 -0.9159229184 2.0267083482
C 1.2650602291 -0.5469665853 3.1841858162
C 0.4246342735 -1.4602278034 3.8056977774
C 0.2638051932 -2.7450906563 3.2838840504
C 0.9568718265 -3.1022793159 2.1329552368
C 1.8054765988 -2.1968463213 1.4932781480
H 6.0349178860 1.6238197918 -1.2070316582
H 5.8742612529 -0.1392412450 -1.1464469427
H 4.7242945485 0.8254932914 -2.0863132442
H 5.0600168907 1.0030229958 0.9718836453
H 3.8488193652 1.8699945890 0.0226698037
H 4.0412933467 -1.1608979680 0.3852443461
H 1.2264791711 0.8790264212 -0.0199890800
H 0.8197935340 -0.1110598689 -2.7923869765
H -1.2519012596 -1.2751541925 -2.0653947820
H -2.6086202219 2.3065796676 -0.8624232885
H -3.8497047122 0.2167654050 1.8481462791
H -4.6959175589 1.3787130654 0.8175551653
H -3.0620044682 1.7543630087 1.4139698678
H -4.1626471131 -1.5889909812 0.1032640027
H -5.0423360613 -0.4421671817 -0.9185260542
H -3.6499806450 -1.3270378158 -1.5765606141
H -5.7175318442 2.3166897477 -2.2899906946
H 1.3951447781 0.4561557254 3.5776459363
H -0.1098845816 -1.1651574785 4.7035230457
H -0.3954328476 -3.4562032293 3.7703568364
H 0.8411667337 -4.0970751835 1.7137487675
H 2.3295415510 -2.5059971484 0.5967003605
