78
CONF934
C -0.8306935731 -0.7017444128 -0.3775941591
C 0.0793920108 -1.8314916316 -0.8360105454
O -0.7336872100 -3.0372294144 -0.6126508791
C -1.6869366530 -2.7976660606 0.3249985272
O -2.4210174247 -3.6767757744 0.7140494439
C -1.5842927639 -1.3588057303 0.7683503741
C -2.8448719400 -0.5756000199 1.1420374972
C -3.9616742980 -0.6866085862 0.1100221635
C -4.0616959235 0.2210596450 -0.9467424687
C -5.0743034103 0.0699404655 -1.8913027331
O -5.2791218294 0.8876563553 -2.9689973173
C -4.3759953016 1.9877232872 -3.1447063027
C -5.9983201149 -0.9758206026 -1.7916526525
O -7.0001190122 -1.1320873876 -2.7081439702
C -5.9046077072 -1.8738892679 -0.7221011550
O -6.8562041638 -2.8517839308 -0.6985122241
C -6.7780107761 -3.8122289764 0.3630668154
C -4.8893590148 -1.7239513157 0.2247601278
C -2.4335040105 0.8727221217 1.3731870549
C -3.3301315789 1.6753925851 2.1102503512
C -3.0152437115 2.9993467474 2.2842211326
C -1.8560795519 3.5530746272 1.7490925744
O -1.7862430348 4.8854886112 2.0579358129
C -2.9615043473 5.1790263094 2.8457696637
O -3.7261010438 3.9562487004 2.9547620321
C -0.9699541487 2.8003312484 1.0228549403
C -1.2657138261 1.4305073554 0.8341623317
C -0.2318329585 0.6127096607 0.0810433818
O 0.8871682586 0.3601318911 0.9837164443
C 2.1083521886 0.8600298152 0.5566934004
O 2.5955035842 0.0172623768 -0.5032424448
C 3.8483203351 0.4898440385 -0.9890681188
C 4.2849208276 -0.3587152165 -2.1688693463
O 5.5849586084 0.0976565792 -2.5891822724
C 6.5602332317 0.0619460216 -1.5539775920
O 6.1668110113 0.7990756934 -0.4061549550
C 4.8985798991 0.3608356636 0.1105322954
C 4.5033236707 1.2171248523 1.2902078176
O 5.4362800467 1.0182800857 2.3482529430
C 3.0850705234 0.8295903750 1.7368755404
O 2.6584532044 1.6703490477 2.8060497337
C 6.9613737415 -1.3480376900 -1.1956800763
C 7.4217716857 -1.8248826600 0.0026732559
C 7.8162181874 -3.1897547637 -0.0532605766
C 7.6636773082 -3.7372699488 -1.2973855701
S 7.0283648884 -2.5822751033 -2.4228765345
H -1.5438128956 -0.4785363840 -1.1814844394
H 0.9803344832 -1.9158577730 -0.2244990886
H 0.3377880985 -1.8091442407 -1.8951667274
H -0.9251429089 -1.3830667783 1.6523406475
H -3.2329161855 -0.9745017968 2.0863284568
H -3.3677498986 1.0495438476 -1.0166124976
H -4.4276294911 2.6741691668 -2.2917709233
H -4.7046921724 2.4986060677 -4.0497794924
H -3.3476188061 1.6305912787 -3.2721937690
H -6.9138169770 -0.4210940042 -3.3610775408
H -5.8248293861 -4.3531292538 0.3337733472
H -6.8993210615 -3.3303926736 1.3402796422
H -7.6006740140 -4.5071472504 0.1922884910
H -4.8063378194 -2.4159061529 1.0525354558
H -4.2423807017 1.2524113878 2.5187760619
H -3.5629987958 5.9355046651 2.3314519634
H -2.6553427851 5.5036336891 3.8459339441
H -0.0716968153 3.2401435291 0.6021129064
H 0.1404246007 1.1865646836 -0.7757862157
H 2.0114774423 1.8910807992 0.1656989110
H 3.7710692213 1.5443864600 -1.3015659875
H 3.6226542812 -0.2326161640 -3.0282318831
H 4.3099724800 -1.4190529128 -1.8787892563
H 7.4161864479 0.6093459739 -1.9631969970
H 4.9592266500 -0.6923855382 0.4245754435
H 4.4976106051 2.2756158643 0.9749285179
H 5.0975211213 1.4988028436 3.1165649758
H 3.1020371860 -0.1906945421 2.1387743019
H 2.6068112572 2.5790063005 2.4748410966
H 7.4726956077 -1.2123805579 0.8953186557
H 8.1950655548 -3.7446757358 0.7971320371
H 7.8745319893 -4.7480884776 -1.6209538629
