43
CONF13
C -3.5652178571 -2.5262319586 -0.3539302868
N -3.0821246468 -1.4423689773 0.4912586742
C -1.9981371609 -1.7679501497 1.4384548524
C -1.7872853436 -0.4029070538 2.1206860254
C -2.1664712692 0.6279787983 1.0203751248
C -2.5649939213 -0.2425866546 -0.1861161907
C -1.3728109854 -0.5995539293 -1.1038659487
C -0.2287616844 -1.3049185826 -0.3593875527
C -0.7388315796 -2.2710552792 0.7119006394
O 0.5769491944 -0.2407911021 0.2492305075
C 1.8812686040 -0.4978546296 0.4496358051
O 2.4075857421 -1.5697555446 0.2058386071
C 2.6020273893 0.6787405715 1.0002578031
C 1.9819369449 1.9243139105 1.1533584301
C 2.7018208378 2.9986100362 1.6638643978
C 4.0378820928 2.8369431237 2.0268172748
C 4.6576903072 1.5969890373 1.8760944181
C 3.9440854816 0.5212523633 1.3627459067
C -0.8739774150 0.5873263104 -1.8991917979
O -1.3915422555 1.6857052622 -1.9152062203
O 0.2127038692 0.2678844090 -2.6245310177
C 0.7758769173 1.3388352059 -3.4236313928
H -2.8105237938 -2.9884795043 -1.0124362151
H -3.9742118766 -3.3185475933 0.2830633712
H -4.3750989170 -2.1504319004 -0.9891527528
H -2.3356956116 -2.5394651827 2.1405803089
H -2.4575535992 -0.3119145166 2.9793667822
H -0.7619798125 -0.2796456005 2.4772354125
H -3.0262403062 1.2266682492 1.3317751281
H -1.3523433383 1.3122715803 0.7812966514
H -3.3499704759 0.2168239276 -0.7961579759
H -1.7303020213 -1.3171433694 -1.8561802772
H 0.4166339679 -1.8293493087 -1.0671221543
H -0.9570315050 -3.2266622013 0.2213846195
H 0.0655490687 -2.4663103223 1.4287733559
H 0.9442152112 2.0524375075 0.8683315594
H 2.2200534280 3.9643157000 1.7781003131
H 4.5966043512 3.6775466433 2.4263187789
H 5.6977330959 1.4703347240 2.1589742756
H 4.4156332678 -0.4476692235 1.2397122524
H 0.0434717409 1.6883288312 -4.1549439113
H 1.0819153280 2.1663110979 -2.7788343180
H 1.6394692083 0.9019753111 -3.9232169450
