48
CONF27
C -5.2667568221 0.5881101313 -0.7703889641
C -3.8896241017 -0.0877043497 -0.6847306135
C -2.9745400357 0.5280726126 -1.7525343362
C -4.0462124261 -1.5908492217 -0.9585231423
C -3.3346453999 0.1654293665 0.7391233915
C -1.8478015591 -0.2478802851 0.9031455586
N -1.5201084710 -0.5257847643 2.2983063029
C -1.1175822005 -1.6828104693 2.8635151095
N -0.9973371359 -1.5329251254 4.1753980929
C -1.3570069133 -0.2306482694 4.3629600147
N -1.6883543936 0.4211264759 3.2566505739
O -1.0793457646 0.8465965005 0.4451164101
C 0.2532250344 0.6750109555 0.1457390250
C 0.9348721951 1.8509468166 -0.1750694618
C 2.2765124461 1.8033023936 -0.5160181047
C 2.9777111254 0.5874646275 -0.5426378959
C 2.2736283914 -0.5760329019 -0.2158971893
C 0.9243202419 -0.5465468067 0.1275502251
C 4.4090794001 0.5390362737 -0.9046242406
C 4.9305348143 1.3930805224 -1.8877471474
C 6.2779653234 1.3473774785 -2.2302499474
C 7.1334399480 0.4457483377 -1.5999292878
C 6.6279796668 -0.4090532645 -0.6221111440
C 5.2812559026 -0.3623711003 -0.2766300257
O -4.1492116891 -0.5567592068 1.6583110734
H -5.9562494706 0.1758028266 -0.0289460238
H -5.1796442149 1.6675471322 -0.6029690817
H -5.6959357831 0.4311437275 -1.7653516949
H -3.4579118436 0.4299776209 -2.7301275104
H -2.7956872498 1.5911993456 -1.5626693258
H -2.0059166675 0.0211600708 -1.8079783526
H -4.7348993319 -2.0565010430 -0.2493066522
H -3.0887672745 -2.1204176232 -0.9105122809
H -4.4467769901 -1.7319096234 -1.9678014045
H -3.3816113166 1.2445215633 0.9468234321
H -1.6343004864 -1.1691291180 0.3504917986
H -0.9294993354 -2.5816991299 2.2901809606
H -1.3744056197 0.2498610089 5.3332496544
H 0.3999113590 2.7946669007 -0.1447155982
H 2.7939568012 2.7304728357 -0.7416199457
H 2.7774546495 -1.5369907053 -0.2485791640
H 0.4275693973 -1.4805089425 0.3573101612
H 4.2697648661 2.0830251217 -2.4037420456
H 6.6592758385 2.0122362293 -2.9993914345
H 8.1846489664 0.4097164210 -1.8680387815
H 7.2873375659 -1.1093384184 -0.1181531689
H 4.9057923057 -1.0165106482 0.5044641374
H -4.0561025410 -0.1481653619 2.5286587320
