82
CONF5
C -4.8821595468 2.3174526522 -2.9918989502
C -4.2787073966 2.1081817792 -1.6305642736
C -3.8968308714 3.1412246261 -0.8738129997
C -4.2265328415 0.6569447488 -1.2065101684
C -5.6378335262 0.1984539470 -0.6749686028
C -5.3779375356 -0.4070700323 0.7202187576
C -3.9366478989 -0.9274975563 0.6338440157
C -3.2589050756 0.2721668156 -0.0719971769
C -1.7952283478 -0.0161254315 -0.4036461717
C -1.1071250705 1.0828467676 -1.2170232336
C 0.3592340661 0.7582913426 -1.5274362310
C 1.1659413839 0.3369259509 -0.2873089726
C 2.7074445342 0.1761679006 -0.5590207950
C 3.2451597916 1.5444170029 -1.0381473157
C 4.7698846971 1.6406645548 -1.0116085393
C 5.3334069249 1.3447795978 0.3688072713
C 4.9184881188 -0.0447044774 0.9108021123
C 3.3630471096 -0.1323408809 0.8220924052
C 2.7796418502 -1.4139172477 1.4197585713
C 1.2840348976 -1.2556001044 1.6941240328
C 0.4588205960 -0.8418530099 0.4576405954
C -0.9889772604 -0.3334761840 0.8987813847
C -1.7159417970 -1.4007887310 1.7651050204
C -3.2249410475 -1.1641809927 1.9643475923
C -0.9095900932 0.9333707388 1.7849861773
C 0.3471853077 -2.0916443655 -0.4449738601
C 5.6551005612 -1.1735584115 0.1735929984
C 5.3428047568 -0.1011734473 2.3907382037
O 6.7611235630 1.5409378356 0.3865323307
C 3.0168680504 -0.8667853012 -1.6532207320
C -3.9019737213 -2.2037650129 -0.2313911681
O -4.6105798262 -3.3032479853 0.3662080173
H -4.2509559168 1.8518376197 -3.7597785548
H -5.8631774419 1.8302655619 -3.0594193850
H -5.0000559145 3.3774732158 -3.2303477031
H -4.0169240629 4.1609132569 -1.2299086687
H -3.4492782228 3.0127788997 0.1062544000
H -3.9817571730 0.0694622272 -2.1025939556
H -6.3333548710 1.0411328909 -0.6255018863
H -6.0794041482 -0.5439107198 -1.3469559191
H -5.4196514019 0.3747175347 1.4884593079
H -6.1190765669 -1.1656468111 0.9969792050
H -3.2939323789 1.0864038195 0.6626024152
H -1.7861826166 -0.9151568452 -1.0321992535
H -1.6506528242 1.2260449187 -2.1591575691
H -1.1750999228 2.0410783575 -0.6908524477
H 0.8159020649 1.6397012856 -1.9887064509
H 0.3879838585 -0.0301375774 -2.2874302234
H 1.1315698797 1.1840828549 0.4094917921
H 2.8321025598 2.3337898594 -0.3933206777
H 2.8962727911 1.7500341000 -2.0557996450
H 5.2191996765 0.9546743161 -1.7419607665
H 5.0790642646 2.6505880377 -1.3064090729
H 4.9457854836 2.0951350101 1.0732849673
H 3.0163901039 0.6894295104 1.4740433860
H 3.2753005571 -1.6532197219 2.3655019739
H 2.9658018461 -2.2679811877 0.7594010537
H 1.1782891777 -0.5088191937 2.4881594400
H 0.8849180262 -2.1958805745 2.0945315854
H -1.5789542590 -2.3999448141 1.3435057102
H -1.2378761409 -1.4278219610 2.7515266786
H -3.6558421069 -2.0262344905 2.4873909362
H -3.3965800654 -0.2907133409 2.6058415912
H -1.8855031849 1.1508097022 2.2249241584
H -0.5961004433 1.8308991560 1.2512790380
H -0.2204671894 0.7882123914 2.6201002514
H 1.3075158464 -2.6043127188 -0.5100376553
H 0.0350543965 -1.8656051239 -1.4653570362
H -0.3636979975 -2.8145896653 -0.0376847614
H 6.7172050797 -1.1652071220 0.4425048343
H 5.2537078568 -2.1474058493 0.4696851295
H 5.5818694271 -1.1002327882 -0.9131821147
H 6.3924636306 0.1927424098 2.4832119665
H 5.2449776613 -1.1087072976 2.8044631819
H 4.7382365389 0.5808202721 3.0003601466
H 7.1364889221 0.9930902950 -0.3150349034
H 3.9473390609 -0.6317637740 -2.1750022168
H 3.1148837747 -1.8826502071 -1.2678460458
H 2.2277955509 -0.8747978422 -2.4091869222
H -4.2992652314 -2.0033643176 -1.2352250873
H -2.8789095056 -2.5646761883 -0.3530257894
H -5.5516952196 -3.0924343223 0.3543714416
