45
CONF16
C -0.4053083003 1.7570083879 -2.2282025365
C -1.3092894414 1.5793297887 -1.0518534476
C -1.7064948325 0.3947360670 -0.5727083863
C -2.6186883793 0.2581881256 0.5727947033
C -2.2901169143 -0.6697148000 1.7851981987
C -3.4456917865 -0.9683367588 0.8411416091
C -3.4343287884 -2.1454486945 -0.1092639582
C -4.8120260548 -0.7314117340 1.4557027744
C -0.9833303941 -1.3323878970 1.9054843320
O -0.2641637252 -1.1932438847 2.8802150951
O -0.6283186939 -2.0908593331 0.8386705901
C 0.7232249008 -2.6295352071 0.8532678668
C 1.6862045931 -1.5979760257 0.3421648139
C 2.6051784920 -0.9466815450 1.1560695225
C 3.4367029643 0.0490170620 0.6559551771
C 3.4101749533 0.4283081253 -0.6790867415
C 2.5070697688 -0.2443383405 -1.4973482640
C 1.6656480685 -1.2239566218 -1.0001215585
F 0.8107248895 -1.8357607622 -1.8400303596
F 2.4538082494 0.0552477596 -2.8073124977
C 4.2584906956 1.5492182596 -1.2325163595
O 3.4748124473 2.7035098839 -1.5301685601
C 2.9584683682 3.3343446267 -0.3547929973
F 4.2863044248 0.6520745188 1.5089040062
F 2.7152762132 -1.2725206281 2.4534918910
H -0.1675871147 0.7976396868 -2.6962583969
H 0.5363253605 2.2382883813 -1.9327392743
H -0.8637721578 2.4071855940 -2.9829763192
H -1.6595860441 2.4896492554 -0.5627652322
H -1.3514715753 -0.5118964745 -1.0556063278
H -3.0539372824 1.1994291589 0.9027023450
H -2.5747467369 -0.2389942787 2.7398319933
H -3.6780288323 -3.0640981197 0.4353394391
H -2.4812507573 -2.2950959438 -0.6118014117
H -4.2070896095 -1.9913253476 -0.8705987030
H -5.5467933014 -0.5340928447 0.6673537434
H -4.8032158272 0.1227050152 2.1387847821
H -5.1385073023 -1.6166063471 2.0128764947
H 0.9901143812 -2.9526816814 1.8591755371
H 0.6824258193 -3.4864111348 0.1799199764
H 4.7080826477 1.2353590689 -2.1778294277
H 5.0582130782 1.7944756786 -0.5227388607
H 2.2494239508 2.6818137364 0.1743972376
H 3.7722769978 3.6124662607 0.3295367382
H 2.4347933866 4.2333796621 -0.6855921260
