70
CONF58
C -2.9760612856 0.4899955108 -0.8172894885
C -4.4516314205 0.1272036100 -0.5270491341
C -4.5656747672 -1.3442683109 -0.2934384243
C -5.5665122104 -2.2733148192 -0.4419268086
N -5.0854335573 -3.5267853256 -0.0739809172
C -3.7660948578 -3.4210049777 0.3031483145
C -2.8079679092 -4.3403935388 0.7380194164
C -1.5397711734 -3.8357938248 1.0160054441
C -1.2100049276 -2.4683342747 0.8749924633
C -2.1653743676 -1.5513321202 0.4503678973
C -3.4323863591 -2.0580952713 0.1709607297
C -2.0079943293 -0.0553346611 0.2753028441
C -0.5639805444 0.3391970719 -0.0263198952
C -0.4485361811 1.8565101040 -0.2136975592
C -1.4227640855 2.2960184467 -1.2989731369
N -2.7961462602 1.9527277753 -0.9031562943
C -3.7606126626 2.6476570757 -1.7840696251
C -3.7328218848 2.2289377177 -3.2299213683
C -3.3889487801 3.0349474125 -4.2325810844
C 0.9741049093 2.2508776973 -0.5761287125
O 1.2413875083 2.7738047316 -1.6566314946
N 1.9964704934 1.9103504738 0.2950589754
C 3.3829064924 2.0507349172 -0.2067460281
C 3.7560853077 1.0629456454 -1.3168921021
C 3.4378172830 -0.3986534462 -1.0229498094
N 4.0031116648 -0.9020353291 0.2392652731
C 5.4683917900 -0.8812881419 0.2407414648
C 3.5110187871 -2.2602321182 0.4931189399
C 1.7627297920 1.6025404089 1.6822895868
O 0.8902939508 2.1827288312 2.3306500315
N 2.5917916755 0.6735323567 2.1815042077
C 2.5626743913 0.3105135154 3.5938364421
C 3.9138129925 -0.2433732483 4.0244842681
H -2.6882508473 -0.0022451681 -1.7696142382
H -4.7793276823 0.6958782982 0.3555986694
H -5.0923898909 0.4285533867 -1.3603840532
H -6.5881855057 -2.1641115822 -0.7789918246
H -5.6231956053 -4.3773629993 -0.1029278033
H -3.0294191998 -5.3966085537 0.8534394999
H -0.7687962814 -4.5219827714 1.3539786750
H -0.1980804987 -2.1528589040 1.1097311327
H -2.3004287509 0.4323059427 1.2197204151
H 0.0845714635 -0.0029967440 0.7855589395
H -0.2319037395 -0.1669994459 -0.9441533032
H -0.7229679584 2.3432130752 0.7259868156
H -1.3635032422 3.3804340960 -1.4393107289
H -1.1435459479 1.8280618270 -2.2599086731
H -4.7681633645 2.5066172496 -1.3775093204
H -3.5417302774 3.7199180342 -1.7163575049
H -4.0093535731 1.1971253891 -3.4481885735
H -3.1037559629 4.0691389576 -4.0486044128
H -3.3837786607 2.6943635813 -5.2641404184
H 4.0484494722 1.9374326708 0.6507660628
H 3.5047342916 3.0707822576 -0.5862387527
H 3.2267802197 1.3310576423 -2.2357643890
H 4.8236709073 1.1976832558 -1.5252830307
H 3.7778681329 -1.0159477048 -1.8758261853
H 2.3487902795 -0.5195937423 -0.9565516327
H 5.8920903114 -1.4836542704 -0.5830842941
H 5.8336499580 -1.2867725926 1.1894879030
H 5.8374068098 0.1434873530 0.1456996050
H 3.8098627331 -2.9663853682 -0.3017887346
H 3.9067875765 -2.6263449912 1.4459081245
H 2.4167135307 -2.2491018297 0.5512900892
H 3.1797451648 0.1099071087 1.5318843814
H 2.3067847774 1.2024707912 4.1742761281
H 1.7714860408 -0.4308481776 3.7788236570
H 3.8822619775 -0.5241593536 5.0807845595
H 4.7025293989 0.5031405777 3.8876275888
H 4.1787129659 -1.1345814754 3.4460719150
