39
CONF13
N 2.0905202958 -0.4096432067 -1.8157895704
C 2.4154263686 -1.3458799632 -0.8706156856
N 2.8604985452 -2.5252400531 -1.3128873979
C 3.2165482957 -3.4203523654 -0.3777750056
N 3.7394415375 -4.6026986268 -0.8342039759
N 3.1392742014 -3.2708414634 0.9546427561
C 2.6921690341 -2.0758736126 1.3558438482
C 2.3209394549 -1.0462908452 0.5099239326
C 1.8552244149 0.2918362547 1.0071987699
C 0.4405940332 0.6564590164 0.5901357299
C -0.5660931493 -0.3054735443 0.6482249612
C -1.8689742774 0.0280083790 0.2730127153
O -2.9227363082 -0.8315757233 0.2998349357
C -2.6619705814 -2.1695223616 0.7167747207
C 0.1554725084 1.9481798842 0.1479670561
C -1.1506869698 2.2845299982 -0.2264796376
O -1.5369844146 3.5153227932 -0.6610728465
C -0.5324816223 4.5196069477 -0.7599273804
C -2.1672417411 1.3221096361 -0.1803188067
O -3.4270258506 1.6274838815 -0.6193630709
C -4.2864631205 2.1145253306 0.4207111957
H 2.0065195974 -0.7704646630 -2.7537103431
H 1.4103763125 0.2900305419 -1.5544382857
H 3.5612250530 -4.8312117447 -1.7972859043
H 3.7635030782 -5.3599151982 -0.1724232444
H 2.6268983095 -1.9274644642 2.4353714866
H 2.5362005834 1.0798845305 0.6578573868
H 1.9186109171 0.2955517201 2.1033235020
H -0.3136810350 -1.3066264332 0.9758011441
H -1.9362946260 -2.6585935026 0.0545938766
H -2.2936848264 -2.2014825737 1.7502112247
H -3.6188278795 -2.6893891390 0.6550668007
H 0.9516850625 2.6825608006 0.1116062299
H 0.2546281402 4.2283763181 -1.4675367707
H -0.0838933744 4.7365577518 0.2183800888
H -1.0406533645 5.4105400031 -1.1311295036
H -5.2498982682 2.3237559633 -0.0485605940
H -3.8824122405 3.0364648788 0.8576109172
H -4.4157537080 1.3567549179 1.2036855619
