41
CONF47
C -4.8746608948 -0.9900565582 -0.9814036227
C -4.3918348464 0.4391296367 -1.2218549606
N -3.5982328978 0.9642980435 -0.1031010593
C -4.3733359239 1.6600849994 0.9257193327
C -4.6198563417 3.1267560566 0.6106795491
O -3.3686454551 3.8190412384 0.6330347853
C -2.2683559705 0.7160628281 0.0128841781
C -1.4870464647 1.2617105300 1.0694400954
C -0.1461316256 0.9819940431 1.1667001152
C 0.5109048651 0.1577821096 0.2288863958
C -0.2546242660 -0.3805015169 -0.8318375638
C -1.5949424356 -0.1130136067 -0.9373858902
N 1.8555593057 -0.0454724859 0.4355441007
N 2.4536449152 -0.7862276393 -0.4183945409
C 3.8155628310 -0.9712248766 -0.1619539408
C 4.5062424998 -1.7563684761 -1.1036654964
C 5.8562193251 -2.0121243488 -0.9595632016
C 6.5256243694 -1.4777845147 0.1419393204
C 5.8638142604 -0.6961025996 1.0943518434
C 4.5158447572 -0.4441261554 0.9437249747
N 7.9455090384 -1.7412869634 0.3045314097
O 8.5129491117 -2.4343527564 -0.5436718478
O 8.5212312025 -1.2625244354 1.2850685655
H -5.4897862820 -1.0446237801 -0.0781163202
H -4.0335623450 -1.6793238031 -0.8664460089
H -5.4813448070 -1.3223675351 -1.8290123738
H -5.2514186100 1.1051750609 -1.3436519580
H -3.8134461706 0.5119273790 -2.1468808856
H -3.8877587541 1.5603627736 1.8988017978
H -5.3472284049 1.1627332968 1.0049079613
H -5.1024150750 3.2245572071 -0.3724492101
H -5.3076052399 3.5249685429 1.3715413823
H -3.5268995601 4.7259416794 0.3452655259
H -1.9330438824 1.9315843407 1.7906315440
H 0.4398123658 1.4100747750 1.9746049110
H 0.2238925779 -1.0189913140 -1.5652880956
H -2.1446193633 -0.5584990504 -1.7558772049
H 3.9565658983 -2.1576374532 -1.9486143548
H 6.3914948330 -2.6144397130 -1.6823976266
H 6.4120040639 -0.2975180114 1.9389661044
H 3.9899203909 0.1575415726 1.6743417621
