78
CONF584
C -0.5689147729 -0.5700157991 -0.7015034408
C 0.6494805838 -0.9279757572 -1.5403481281
O 0.3044692495 -2.2423368225 -2.1013533164
C -0.6255343499 -2.8574142605 -1.3242811307
O -0.9969794230 -3.9838082937 -1.5567425255
C -0.9978230923 -1.9351544365 -0.1887336559
C -2.4331783242 -1.9167024304 0.3418863164
C -3.4887121580 -1.7979860241 -0.7520611841
C -3.9439330118 -0.5502120068 -1.1839121884
C -4.8843116210 -0.4768908959 -2.2087954564
O -5.4089042139 0.6804162131 -2.7194023518
C -4.9401569888 1.9162092357 -2.1664344953
C -5.3855442598 -1.6373792676 -2.8079867809
O -6.3131129674 -1.5790226424 -3.8093580797
C -4.9376389393 -2.8864368111 -2.3621497538
O -5.4887434193 -3.9618785429 -2.9945770756
C -5.0387401352 -5.2592509639 -2.5857925887
C -3.9949143676 -2.9611143009 -1.3350500978
C -2.5350616295 -0.7788345202 1.3488729448
C -3.6177538269 -0.8290326153 2.2520402943
C -3.7586237738 0.2028524950 3.1445633504
C -2.8786849217 1.2822595082 3.1625762159
O -3.2798747479 2.1919966924 4.1088101960
C -4.3008018146 1.5151789888 4.8708909443
O -4.7425560202 0.3908192018 4.0799781035
C -1.8268733398 1.3652637434 2.2879036241
C -1.6507023093 0.3089259626 1.3649099219
C -0.4387622704 0.4035499074 0.4544094416
O 0.7439850888 0.0873392242 1.2462091877
C 1.7085961841 1.0846953899 1.2829102124
O 2.3641867933 1.1240690494 0.0041702166
C 3.3683294165 2.1333446621 -0.0268470226
C 3.9735096440 2.1972249905 -1.4174211793
O 5.0492420559 3.1549790968 -1.3981422327
C 6.0391262565 2.8910652473 -0.4193676638
O 5.4967947450 2.7820573785 0.8947413123
C 4.4753597814 1.7780257983 0.9628166549
C 3.8987108104 1.7197479110 2.3619927514
O 4.8512295572 1.3644962851 3.3644681799
C 2.7183386528 0.7365584390 2.3749626503
O 2.0420487582 0.7839270444 3.6249088237
C 6.8789731158 1.6914030022 -0.7807269973
C 7.1093799607 1.1517091839 -2.0175051053
C 8.0451293609 0.0812185819 -1.9947455055
C 8.5280961043 -0.1765268403 -0.7416373631
S 7.8373744273 0.8921684253 0.4355806287
H -1.3524440738 -0.1885860758 -1.3689533001
H 1.5511559953 -1.0468671982 -0.9357804257
H 0.8397407849 -0.2585937369 -2.3799099656
H -0.3315964044 -2.2230499734 0.6417400981
H -2.6166686413 -2.8579411798 0.8724985329
H -3.5818192148 0.3514015776 -0.7057826040
H -5.1765905326 1.9805428697 -1.0979452117
H -5.4665508075 2.7021310281 -2.7083493797
H -3.8591370833 2.0237485940 -2.3138214130
H -6.4997039874 -0.6437250741 -3.9796150019
H -3.9596537910 -5.3698956403 -2.7455836003
H -5.2770668407 -5.4450118491 -1.5318294961
H -5.5780672899 -5.9687931755 -3.2139729584
H -3.6383538742 -3.9221361009 -0.9888563153
H -4.3173534254 -1.6584736714 2.2303315476
H -5.1399961220 2.1932195539 5.0370899775
H -3.8665245955 1.1461161547 5.8099379610
H -1.1508013525 2.2138388618 2.2989170345
H -0.3397486554 1.4305928049 0.0825192402
H 1.2607471611 2.0761305181 1.4824376086
H 2.9430471951 3.1151622694 0.2397432090
H 3.2566453728 2.5605707603 -2.1570838894
H 4.3315702662 1.2011970683 -1.7119851631
H 6.6557406046 3.7958610145 -0.3900568903
H 4.8880306797 0.7923191085 0.6883087357
H 3.5351157568 2.7161785787 2.6445883116
H 5.2618308845 0.5257256009 3.1087252405
H 3.0960774121 -0.2797903353 2.1681223611
H 2.7213470810 0.7274374359 4.3119138969
H 6.6201184012 1.5138572124 -2.9140406680
H 8.3461016883 -0.4772723187 -2.8733901502
H 9.2392837825 -0.9319511427 -0.4346440744
