52
CONF120
C 1.3273838607 -2.3587512806 -1.9117899919
C 1.5315674328 -0.8966034984 -1.5887322849
C 2.5800645689 -0.2226530275 -2.4777239585
C 2.8919035792 1.1985848007 -1.9886015683
C 3.2369399160 1.1977818389 -0.4934843523
C 2.1875237105 0.4399914556 0.3208196341
O 1.9505249871 -0.8417460777 -0.1905262141
O 0.9847572606 1.2585850298 0.3278622928
C 0.0559629306 0.8744233083 1.2696149763
C -1.1347495158 0.3318196387 0.8793059431
O -2.0514995474 -0.0983564895 1.7875542248
C -1.8125022087 0.0091704024 3.1293025868
C -2.7932913448 -0.4828648354 3.9742587477
C -2.5814277392 -0.3563754014 5.3482270820
C -1.4272340177 0.2422011881 5.8683617540
C -0.4613743838 0.7241924226 5.0014641136
C -0.6354282215 0.6132514671 3.5935544224
C 0.3597929927 1.0895261828 2.6686131454
O 1.4261884064 1.6416411684 3.0467178923
O 0.6510600600 1.2965118973 5.4928578255
O -3.4848739691 -0.8035619770 6.2527209454
C -1.5736535655 0.1386273362 -0.4999992535
C -2.0704588417 -1.1107208288 -0.8950995732
C -2.4157651466 -1.3312950811 -2.2180434646
C -2.2886702932 -0.2903294310 -3.1565264773
C -1.8336041113 0.9608337124 -2.7543116248
C -1.4722266486 1.1775365564 -1.4298256990
O -2.6426012171 -0.6030715368 -4.4325812815
O -2.8602561408 -2.5618441079 -2.5932227249
O 4.5133792865 0.6006475975 -0.2683022380
O 1.8012271884 2.0806822337 -2.2903226342
O 2.1359073891 -0.1889292751 -3.8323089425
H 2.2644185443 -2.9120258606 -1.7894936041
H 0.5694595237 -2.7899410492 -1.2517186273
H 0.9869616890 -2.4643017346 -2.9446067278
H 0.5826494439 -0.3553036438 -1.6902904384
H 3.5004774757 -0.8209717063 -2.4633762935
H 3.7515605696 1.5869662756 -2.5452809601
H 3.3038180317 2.2284916061 -0.1309266804
H 2.5333777627 0.2939429880 1.3478166730
H -3.6909809293 -0.9393702693 3.5720485678
H -1.2926906592 0.3260184333 6.9407048171
H 1.1951035452 1.5613183075 4.6974582717
H -4.2430955705 -1.1967865013 5.7975031888
H -2.1514266644 -1.9272546241 -0.1853465822
H -1.7625049085 1.7625228260 -3.4839429365
H -1.1339416396 2.1588804219 -1.1156030512
H -2.5208442277 0.1621477309 -5.0115132581
H -3.0448421485 -2.5541669214 -3.5442811153
H 4.4308071257 -0.3548245144 -0.3989317267
H 1.1087877719 1.9485075267 -1.6248233018
H 1.5183379990 0.5572446219 -3.8912515034
