22
CONF180
C 2.0793780634 -0.3808462929 -0.3840278089
C 1.2409608232 -0.5325866893 0.8866305818
C -0.0768585808 0.2655040858 0.9007794090
C -0.9790326975 0.0456657515 -0.3199689372
C -2.3691638092 0.6108294261 -0.0827262914
O -3.1869603729 0.5005309633 -1.2503884864
O -1.1510964162 -1.3467241735 -0.6031371843
O 0.2017074741 1.6657286206 1.0718320813
O 2.0183384179 -0.1397746015 2.0210043594
O 1.5205574499 -1.2322296769 -1.4028577448
H 3.1055838806 -0.6928780176 -0.1528309519
H 2.1057600128 0.6645330748 -0.7227359832
H 1.0110477856 -1.5970141096 1.0162007474
H -0.6185088777 -0.0296502359 1.8089848713
H -0.5326273592 0.5550461804 -1.1909133366
H -2.8261412842 0.0801910583 0.7679171551
H -2.3046147373 1.6737717108 0.1629188534
H -3.1585333803 -0.4288194429 -1.5158332656
H -0.3294842264 -1.6254617721 -1.0444591775
H 0.5001588014 2.0265464572 0.2248916775
H 1.9435136468 0.8256538880 2.0740480368
H 1.8060155870 -0.9080162096 -2.2653285044
