35
CONF16
C -2.5491375523 -0.9871013401 2.5787543470
C -2.5107818634 -1.0118860791 1.0743423282
O -3.5562193877 -1.0575937100 0.3996159816
N -1.2896887977 -0.9872583105 0.5051145554
C -1.1071263933 -1.0817313577 -0.9394290289
C 0.3102931556 -1.5567893783 -1.2474844084
O 0.5669953384 -2.7472898895 -0.5799398477
O 1.2594953129 -0.5814897772 -0.7695508569
C 1.1364609221 0.7163748253 -1.3734982611
C 2.2071479672 1.5803513495 -0.7411129552
O 1.9773899180 1.7867224994 0.6776880430
P 2.1288124143 0.6438568103 1.7959939947
O 3.2041840424 -0.4146059024 1.2515318096
O 2.9075792528 1.3801147426 2.9769139640
O 0.8495587300 0.0857178447 2.3038629877
C -0.2775724093 1.2680676687 -1.1745984911
O -0.3524328401 2.4843388776 -1.9156748993
C -1.3074534733 0.2554120830 -1.6656818883
O -2.6163971863 0.7950113272 -1.4991526086
H -3.1382999635 -0.1232090869 2.8992010491
H -3.0681603238 -1.8859872670 2.9244188474
H -1.5574173773 -0.9418941709 3.0310413901
H -0.4763768792 -0.8020295051 1.0906473095
H -1.8179907170 -1.8163230584 -1.3369486074
H 0.4369322107 -1.6566147878 -2.3374489077
H 1.3609994773 -3.1478442177 -0.9591834400
H 1.3491306807 0.6536353577 -2.4539537481
H 2.1883688560 2.5767558305 -1.1846708954
H 3.1944017204 1.1310865072 -0.8907852054
H 2.8188851719 -0.9621138994 0.5418169795
H 3.6969520703 1.8683928782 2.6948983334
H -0.4480476290 1.4569888877 -0.1043662666
H -1.2567911649 2.8129410374 -1.8218237183
H -1.1350327916 0.0845739537 -2.7409419993
H -3.1286605074 0.1814190827 -0.9361073860
