37
CONF331
C -3.7366924545 0.6937916809 -2.1371138981
C -2.4285123905 0.9146721905 -2.8674463352
O -1.3356764679 0.1561079260 -2.2716209195
P -0.7493772214 0.6399719197 -0.8697037458
O -0.7927347672 2.0896416237 -0.5845631958
O -1.4788130326 -0.3036050181 0.1970613629
C -1.8025401520 0.2143795149 1.5296290059
C -1.8407426266 -0.9632904797 2.4719073421
O 0.7267362612 -0.0110270171 -1.0441559842
P 1.8345463520 -0.2466085302 0.1366435480
O 1.3297161181 0.1413987157 1.4733050764
O 2.2593841049 -1.7591094142 -0.1042204523
C 1.3058048676 -2.7981412995 0.2837597642
C 1.6087353849 -3.2871091563 1.6825861255
O 3.1376675150 0.4750318061 -0.4010369514
C 3.4636781704 1.8220476993 0.0745296081
C 2.6753653340 2.8766966788 -0.6690567701
H -3.9656833872 -0.3727675373 -2.0641405797
H -4.5454219296 1.1896036293 -2.6836467003
H -3.7016852476 1.1176344348 -1.1291965248
H -2.4776154431 0.5437257148 -3.8939584950
H -2.1515761892 1.9740845266 -2.8818614554
H -2.7751247977 0.7138193708 1.4586507127
H -1.0433156602 0.9399489673 1.8278097696
H -0.8498015633 -1.4188782847 2.5422888011
H -2.1341028018 -0.6221679602 3.4695655188
H -2.5620280137 -1.7136671888 2.1357647880
H 1.4344424432 -3.5868126487 -0.4619345754
H 0.2825058387 -2.4107262864 0.2037802062
H 0.9096577521 -4.0858963981 1.9516539405
H 2.6267480422 -3.6812722200 1.7404562162
H 1.5055182348 -2.4713130406 2.4027265887
H 3.2814091414 1.8631222300 1.1532424334
H 4.5366932584 1.9095178405 -0.1116247051
H 2.8280214150 2.7838041576 -1.7479630015
H 1.6044136029 2.8060309069 -0.4573447852
H 3.0204011189 3.8673606755 -0.3547713523
