44
CONF22
C -3.5704909100 -0.0772181973 2.3596560450
N -4.0149242057 0.1238400534 0.9864728246
C -3.3493171136 1.1967251960 0.2276919486
C -4.0671700266 1.0828006456 -1.1327237891
C -4.4361385430 -0.4257626808 -1.2353256753
C -3.8960114955 -1.0296423630 0.0768054173
C -2.4334432211 -1.4996893641 -0.0725129743
C -1.5787838823 -0.3702965764 -0.6281288424
C -1.8307125994 0.9526742802 0.0873984492
O -0.1758648087 -0.7743761896 -0.4478054438
C 0.7399770819 -0.1972552260 -1.2412065233
O 0.4831631818 0.5686086713 -2.1489530684
C 2.1443232797 -0.5870212093 -0.8081402767
C 3.1069148691 -0.5884355749 -1.9991262039
O 2.7261511547 -1.5421351734 -2.9929094101
C 2.5986984043 0.3740236049 0.2759051885
C 2.6753256739 1.7482322614 0.0257725224
C 3.1083447713 2.6221220909 1.0194267576
C 3.4680517875 2.1348005624 2.2745049822
C 3.3921112573 0.7676636440 2.5306341416
C 2.9591270112 -0.1069759309 1.5369204835
H -2.5054865736 -0.3361400979 2.4776708052
H -3.7544197703 0.8388452971 2.9322824387
H -4.1602840223 -0.8827286295 2.8115041762
H -3.5178244572 2.1640396644 0.7145339668
H -4.9689985717 1.7001987410 -1.1315728942
H -3.4317821666 1.4208659234 -1.9565863293
H -4.0007633881 -0.9100442643 -2.1143059865
H -5.5202552308 -0.5543899326 -1.2865007001
H -4.5082901734 -1.8619789935 0.4420442656
H -2.3837692881 -2.3691778168 -0.7374453241
H -2.0430298373 -1.8091678476 0.9035916275
H -1.7450297026 -0.2582163671 -1.7033133457
H -1.3633498689 0.9204781584 1.0788019597
H -1.3705552197 1.7766382743 -0.4680652753
H 3.0950794601 0.3889277238 -2.4889052799
H 4.1229775482 -0.7817693120 -1.6294494127
H 2.3884345518 2.1383882818 -0.9463103691
H 3.1627253428 3.6866152826 0.8128339267
H 3.8044850631 2.8172090992 3.0487323948
H 3.6690182900 0.3795526662 3.5061046703
H 2.8995266457 -1.1726470449 1.7395000254
H 2.1042909457 -1.5940136819 -0.3797281653
H 2.8602691165 -2.4238259030 -2.6224710435
