63
CONF168
C 2.5212208867 0.1657211034 0.7368620727
C 2.1107681955 -0.4037740108 -0.6181313719
N 0.7853470596 0.0851606751 -1.0141417502
C 0.8065981651 1.5469377496 -1.1384777650
C 1.1529796380 2.2028093000 0.1948730193
C 2.5100029539 1.6931457086 0.6787203641
N 2.9060661583 2.3012047260 1.9523940678
C 4.0084023290 3.1267852195 2.1484809839
C 4.9961706688 3.5768599326 1.2836745716
C 5.9837067270 4.4148797974 1.8111206493
C 5.9805534063 4.7882506187 3.1568643343
C 4.9865681482 4.3364625193 4.0296366335
C 4.0092440989 3.5061902086 3.5058570999
N 2.9094456142 2.9004627016 4.0834316744
C 2.2091332654 2.1539521260 3.1490610053
O 1.1855438424 1.5013098587 3.3470960055
C 0.3413449431 -0.5267431727 -2.2716321006
C 0.0418361526 -2.0233419447 -2.1544027530
C -0.8478622209 -2.4024370812 -0.9685189161
C -2.2077717865 -1.6843401739 -0.9638727565
C -3.0225754051 -2.0148365868 -2.2050906736
C -3.3761892796 -1.0144916982 -3.1125493355
C -4.1125197498 -1.3048062244 -4.2606673142
C -4.4866242094 -2.6176909983 -4.4791508291
C -4.1630648087 -3.6426681162 -3.6047577827
C -3.4292357271 -3.3277312241 -2.4658841476
F -5.2049574715 -2.9174265729 -5.5959942735
C -3.0271116124 -1.9435500869 0.2903253703
C -3.9088321561 -0.9521580760 0.7359517297
C -4.7176137791 -1.1444029620 1.8516275734
C -4.6286433644 -2.3544733334 2.5186160427
C -3.7701924263 -3.3627527934 2.1202627251
C -2.9695573363 -3.1464417800 0.9995107432
F -5.4130277417 -2.5570504538 3.6127118037
H 3.5241385010 -0.1903498391 0.9976519057
H 1.8239673281 -0.1783329170 1.5071532535
H 2.0870246630 -1.4959859922 -0.5547302745
H 2.8715486148 -0.1344002366 -1.3807172721
H 1.5366120501 1.8704934859 -1.9099133906
H -0.1840047324 1.8822730599 -1.4673396340
H 0.3849728288 1.9585217382 0.9356522343
H 1.1842801243 3.2916182016 0.0758102498
H 3.2677622998 2.0071703043 -0.0487703945
H 5.0111032065 3.2956895798 0.2367545925
H 6.7674475352 4.7805682764 1.1558016056
H 6.7612801365 5.4403287973 3.5344801545
H 4.9767258716 4.6227733878 5.0759486833
H 2.6240574977 2.9715483037 5.0473698521
H 1.0860208484 -0.3719434090 -3.0781698613
H -0.5672848051 0.0012280797 -2.5854273152
H -0.4364463014 -2.3354458073 -3.0915897090
H 0.9747639517 -2.5943903934 -2.0877181205
H -0.9999582562 -3.4877259975 -0.9875872080
H -0.3335765026 -2.1676923229 -0.0291452167
H -2.0141635501 -0.6060632279 -0.9857707544
H -3.0752373286 0.0120958313 -2.9233193256
H -4.3895448932 -0.5315870817 -4.9692600703
H -4.4814025969 -4.6585776873 -3.8132631056
H -3.1753582451 -4.1220573905 -1.7700449061
H -3.9650308540 -0.0092680712 0.1981908915
H -5.3985778998 -0.3754742305 2.2005936688
H -3.7270456719 -4.2938535765 2.6752728084
H -2.2932235899 -3.9351383534 0.6882808523
