123
CONF155
C -1.5614111838 2.6447367054 0.9264013889
C -0.9367205713 3.2498892952 -0.3375037496
C 0.4332483660 3.8442627487 -0.1170360868
C 1.0450970588 4.3559589644 0.9706448033
C 0.5299247144 4.6931859867 2.2791780820
C 1.2837483526 5.1372854099 3.3072751197
C 2.7811664532 5.2436953554 3.1968680721
O 3.3493725344 6.3164649900 3.1082211657
N 3.5207422756 4.0532138876 3.2756208481
C 2.9276485904 2.7706559449 3.3007674336
C 2.3245936667 2.3352495605 4.4487376049
C 1.4288315820 1.1920391053 4.5243128625
C 1.1010630190 0.5135743694 3.3262101251
C 0.0108131692 -0.3647682987 3.3266213263
C -0.6297704479 -0.6823649598 4.5347950134
C -0.2427069374 -0.1695359311 5.7635405911
C 0.7736893100 0.7967313643 5.7338763828
O 1.0816997907 1.3208323437 6.9351445371
C -0.9073295706 -0.5467476606 7.0505008453
O -1.7015507109 -1.5022435845 4.3952213766
C -2.0635710279 -1.4942243099 2.9711542550
C -0.8305833784 -0.8639042539 2.2595568300
O -0.7733251835 -0.7501150918 1.0517190809
O -2.3876920889 -2.7741286495 2.5373630062
C -1.3450326048 -3.6367672136 2.2085036505
C -1.1441699021 -3.9961080023 0.9449292226
C -1.9165486806 -3.4224779968 -0.2167279464
C -0.9824656208 -3.0108720228 -1.3632536270
C -1.5570214821 -2.0440363556 -2.4167506738
C -2.2647983094 -0.7849829472 -1.8921441850
C -2.1454062254 0.4465867246 -2.8422616654
C -2.2269676571 1.7923093798 -2.0773081688
C -0.8537603646 2.1794118421 -1.4689258178
O -0.0006425589 2.6913901977 -2.4912836569
C -2.7805034008 2.8870363505 -2.9940791034
O -0.9399789650 0.4598941062 -3.6157467066
C -3.7553722613 -1.0111582198 -1.6041161020
O -2.4488223582 -2.8028974219 -3.3029378289
C -2.3824012041 -2.5784203330 -4.6178121915
O -1.6592619497 -1.7553129441 -5.1566357929
C -3.3225256888 -3.4669236908 -5.3825571746
C -0.3591414494 -4.2239166881 -2.0604434167
O -2.8709929290 -4.3613231665 -0.7301601818
C -3.9258738168 -4.6345947161 0.1811245060
C -3.2899777446 -0.6258833972 2.7962897642
C 1.9539290854 0.7590116148 2.1812776443
N 2.0950163302 0.0502677733 1.1115157140
C 3.1483359883 0.7214882903 0.3514035581
C 2.6013380497 1.1622893856 -1.0205704202
C 2.2171002606 -0.0290620214 -1.8794604509
N 3.3667937290 -0.9105649375 -2.0932155274
C 3.8683867146 -1.4091063822 -0.8100527794
C 4.3064373274 -0.2692497509 0.1037527921
C 3.0294524132 -2.0332649905 -2.9675113203
C 2.6114542794 -1.6377469189 -4.3888062004
C 2.4168899184 -2.9027049272 -5.2273813926
C 3.6340344465 -0.7053989528 -5.0362941852
N 3.6148682202 1.8916680765 1.0985522338
C 2.8950709721 1.8933383328 2.1737551246
O 2.4655553920 3.0640891380 5.6004093697
C 0.6990194855 5.7387745690 4.5516324355
H -1.9641718095 3.4142399510 1.5878446101
H -2.3851078236 1.9682970412 0.6813666345
H -0.8131552431 2.0682939564 1.4794349609
H -1.5860964282 4.0554023186 -0.7159385423
H 1.0380772222 3.8446332070 -1.0171105601
H 2.0861052781 4.6386721387 0.8134307612
H -0.5468711406 4.7035095527 2.4221436678
H 4.4726482608 4.1366969729 2.9375701401
H 1.7280463094 2.0380660597 6.8157069983
H -1.7354597717 -1.2314062428 6.8656351556
H -1.2839716682 0.3409036553 7.5675885445
H -0.1953159496 -1.0291524585 7.7281432288
H -0.7785418080 -4.0174637353 3.0564820236
H -0.3872964753 -4.7498279896 0.7502754810
H -2.4391631842 -2.5338970307 0.1546629496
H -0.1843771616 -2.4244991250 -0.8855634937
H -0.6923995244 -1.7372847093 -3.0133078999
H -1.7491290258 -0.5375057201 -0.9582389475
H -2.9980752812 0.4078094307 -3.5403505437
H -2.9330262641 1.6418124162 -1.2528187753
H -0.4072808843 1.2741052142 -1.0177005125
H -0.0365281854 2.0313319821 -3.2015015658
H -2.7686409216 3.8692679411 -2.5139748984
H -3.8155262166 2.6585829394 -3.2682159212
H -2.1903108061 2.9614353917 -3.9103975224
H -1.0355074821 -0.2190779615 -4.3080533259
H -3.9386754909 -1.9089808532 -1.0129543109
H -4.1801414320 -0.1562592310 -1.0684444648
H -4.3141276548 -1.1272810506 -2.5383608311
H -4.1108994694 -2.8445871345 -5.8165300684
H -2.7770161726 -3.9248433293 -6.2106349246
H -3.7669286191 -4.2308697158 -4.7452673663
H 0.2722098240 -3.9003591278 -2.8937540374
H 0.2721618146 -4.7979196926 -1.3774779925
H -1.1344093610 -4.8859680066 -2.4500850883
H -4.4571034121 -3.7142045578 0.4705268717
H -4.6191030772 -5.3043790057 -0.3331294827
H -3.5610984352 -5.1227278799 1.0957210681
H -3.1068565958 0.3732648649 3.1999904306
H -4.1338814654 -1.0841725535 3.3176222559
H -3.5117921237 -0.5481452328 1.7285364300
H 3.3885308335 1.7422410906 -1.5123991678
H 1.7414338150 1.8136172973 -0.8731054677
H 1.8692502641 0.3497850759 -2.8448820255
H 1.3668845721 -0.5703539222 -1.4161678810
H 4.7344733627 -2.0536562145 -1.0074158587
H 3.1072488681 -2.0246974169 -0.2905109941
H 5.1223151568 0.2946482819 -0.3582076095
H 4.6561644495 -0.6651060988 1.0632772515
H 2.2244964652 -2.6558018247 -2.5192100331
H 3.9203496384 -2.6745456383 -3.0393344574
H 1.6410712181 -1.1234904368 -4.3451956307
H 3.3652524506 -3.4408304811 -5.3442762809
H 2.0455262679 -2.6532746296 -6.2258305863
H 1.6965567714 -3.5857877521 -4.7645679368
H 3.7559157750 0.2170978801 -4.4632330566
H 3.3325228661 -0.4478251589 -6.0568359572
H 4.6150847015 -1.1930760580 -5.0844515798
H 3.1242949293 3.7582252592 5.4260856198
H -0.3926345125 5.7157318446 4.5133066775
H 1.0245819641 6.7816118140 4.6448354320
H 1.0204211161 5.2154490477 5.4593476910
