76
CONF3
C -0.7521931915 -1.8926260455 -1.1506706476
C -1.9470666640 -1.1038505955 -0.6407794219
C -3.2321960068 -1.6077087604 -1.2392295491
C -4.4710357783 -1.3827512007 -0.7773796029
C -5.6472094995 -1.9907864740 -1.4970565509
O -6.4363351246 -0.9978772039 -2.1725404955
C -4.8599059909 -0.4722651552 0.3646346401
C -3.8298873175 0.5769568830 0.7975699353
O -2.9448403730 0.0931485174 1.8290918373
C -4.4846297727 1.8371671460 1.4121884007
O -5.2582093930 1.7996339957 2.3536808736
C -3.9487055299 3.0230673788 0.7353592531
C -4.3371555395 4.4027385545 1.1379204065
C -3.1087057684 2.6204991604 -0.2378636125
C -3.0418612362 1.1309381068 -0.3986745447
C -1.7126127774 0.4394671015 -0.7741577269
O -1.5097652440 0.8484417779 -2.1215045328
C -0.4800131878 0.7881067064 0.1080511065
C -0.1790875550 2.2829657339 0.2212617451
C 0.7788799208 0.1010974062 -0.4558868754
O 1.7888409080 0.1093536604 0.5926112049
C 3.0577126081 0.4377989687 0.2371290453
O 3.3583391179 0.7393597081 -0.9145426535
C 3.9862844264 0.3917505318 1.3697281378
C 3.5290861472 0.0237470431 2.6450820179
C 4.3758043515 -0.0358014265 3.7354335467
C 5.7246919470 0.2829433827 3.5578806014
C 6.2146000498 0.6516165167 2.3202519848
C 5.3684066016 0.7185650167 1.1897176415
N 5.8611068425 1.0808731808 -0.0207247034
C 7.2405680307 1.4414137276 -0.2554659848
C 0.6248281391 -1.2998125965 -0.9925433593
O 1.6295289311 -1.6012436731 -1.9781513035
C 1.5687902589 -0.9759428463 -3.1699981763
C 2.7865271450 -1.2717430729 -3.9900165080
O 0.6573676624 -0.2526851117 -3.5199011194
C 0.2484758972 -2.5126233316 -0.1837875078
C 0.0637325071 -2.4178254363 1.3147367195
C 0.8592475425 -3.8368971225 -0.5999476026
H -0.9038018853 -2.4498987767 -2.0723472194
H -2.0268792605 -1.2730353668 0.4353898739
H -3.1396816142 -2.2476229723 -2.1167807823
H -5.3043312549 -2.7643247388 -2.1991186919
H -6.3358021417 -2.4606988258 -0.7846077389
H -5.8503498097 -0.5524828120 -2.7964132649
H -5.7674305561 0.0576850307 0.0418961887
H -5.1678273568 -1.0610586642 1.2400773198
H -3.4725696806 0.0711119896 2.6403294781
H -5.4207217746 4.5361559620 1.0521848790
H -4.0857213380 4.5774242247 2.1894231114
H -3.8380689680 5.1551066830 0.5231381692
H -2.5888720602 3.2841789981 -0.9208838271
H -3.6448982378 0.9145517716 -1.2926082376
H -0.7559558691 0.3735261502 -2.5195085549
H -0.6797718223 0.4025069661 1.1098035020
H -0.9194214299 2.7925584931 0.8415850569
H -0.1601116008 2.7481896345 -0.7694336084
H 0.7978691612 2.4328972703 0.6908914585
H 1.1533584213 0.7199204937 -1.2764630792
H 2.4797391775 -0.2169416650 2.7617971778
H 3.9980919941 -0.3221629775 4.7100674903
H 6.4061447735 0.2433621154 4.4025089106
H 7.2648316696 0.8945249970 2.2148991279
H 5.1887390603 1.1210053010 -0.7747301284
H 7.3573995211 1.6936979929 -1.3113732797
H 7.5479697310 2.3147945414 0.3373861969
H 7.9276570269 0.6145750551 -0.0269546507
H 3.6096548170 -0.6720185746 -3.5869849691
H 3.0702921291 -2.3228404715 -3.9062866501
H 2.6079699658 -0.9941838965 -5.0279875585
H -0.2815381422 -1.4444663455 1.6602912648
H 1.0176580296 -2.6222237393 1.8117406858
H -0.6609491781 -3.1701788449 1.6462743589
H 0.9006258905 -3.9543472883 -1.6838484444
H 1.8780615292 -3.9342095578 -0.2097027455
H 0.2572385012 -4.6542878979 -0.1886910362
