40
CONF24
C -1.0571570052 -0.9473898200 2.1276813109
C -0.3441388418 -1.2381152349 0.7958109995
C 1.1085545070 -1.6390230938 1.0872119344
C -1.1417069881 -2.3150902962 0.0571852372
C -0.7349779973 -3.6498426411 0.0299673531
C -1.5170096336 -4.6217453717 -0.5940685001
C -2.7210790033 -4.2753297074 -1.1984120327
C -3.1389833301 -2.9454829853 -1.1709473673
C -2.3578038678 -1.9788382515 -0.5474835361
N -0.3770363506 0.0240554648 0.0338670737
C 0.1547364437 0.1501310920 -1.2185239631
O 0.5466751785 -0.8139732150 -1.8882029016
N 0.1858909525 1.4281066379 -1.7395257691
C -0.0578410958 2.6495052766 -1.0002742046
C 0.9944642862 3.0023494180 0.0394749882
C 2.1958892695 2.2982806336 0.1433910536
C 3.1519009001 2.6289972833 1.0986597161
C 2.9235423869 3.6834440502 1.9772832164
C 1.7388202360 4.4087892040 1.8952858381
C 0.8003665457 4.0582069938 0.9327923229
Cl -0.6883030480 5.0055463619 0.8435212918
H -1.0872243269 -1.8577334117 2.7312774400
H -2.0838982058 -0.6116437263 1.9535192076
H -0.5176241156 -0.1751224829 2.6883968230
H 1.6209669398 -0.7878526402 1.5459892846
H 1.1504007987 -2.4754315639 1.7900339089
H 1.6345743652 -1.9153038458 0.1710579396
H 0.2025246413 -3.9467901909 0.4860330450
H -1.1769525958 -5.6529793313 -0.6090903997
H -3.3277227627 -5.0312063300 -1.6873782452
H -4.0758947039 -2.6594914762 -1.6399229528
H -2.6881690821 -0.9444292782 -0.5397610845
H -0.5201982385 0.8547090324 0.5871880787
H 0.7179795984 1.4975491738 -2.5933991221
H -1.0453868443 2.6064886703 -0.5224817912
H -0.1274359259 3.4670966793 -1.7270792917
H 2.3792474403 1.4738786779 -0.5384418863
H 4.0744456486 2.0606530513 1.1552556796
H 3.6615473225 3.9484544872 2.7272177570
H 1.5440156027 5.2365733991 2.5679371640
