37
CONF443
C -1.3422391284 -0.6625625763 -3.3763171372
C -2.2371426861 -1.5689772160 -2.5600123143
O -1.5423107168 -2.1324732720 -1.3991024261
P -1.2349946688 -1.2051549104 -0.1453140984
O -2.2073364614 -0.1290601171 0.1559356788
O -0.9447794994 -2.2853143857 0.9775766024
C -1.4632775261 -2.0952459751 2.3394941894
C -2.8474405544 -2.6874057065 2.4612564792
O 0.2473114010 -0.6389145851 -0.5443152351
P 1.1765105194 0.3069840177 0.3954302914
O 0.8034656600 0.2990499127 1.8292668115
O 2.6074108091 -0.2527994815 -0.0031230538
C 3.7146069914 -0.1395659199 0.9510355343
C 4.2386438390 1.2766114713 1.0327630532
O 1.1459058474 1.7210599949 -0.3419358267
C -0.0336482994 2.5761747849 -0.1575203344
C 0.1678299297 3.8042372585 -1.0105826177
H -1.8760381443 -0.3618517136 -4.2836053708
H -0.4240857577 -1.1804318694 -3.6666427453
H -1.0757410857 0.2424842953 -2.8227576225
H -3.1306348533 -1.0451527630 -2.2057739070
H -2.5412979962 -2.4488419370 -3.1307094555
H -1.4442819834 -1.0297041778 2.5802553868
H -0.7385551186 -2.6118176658 2.9723402553
H -3.5546978706 -2.1542900322 1.8195759876
H -2.8434724394 -3.7461723041 2.1877127565
H -3.1882492568 -2.5970156495 3.4978509842
H 4.4673244935 -0.8258855126 0.5579561429
H 3.3712548210 -0.5028621475 1.9246380082
H 3.4899811379 1.9522315169 1.4567894709
H 5.1201500393 1.2949004729 1.6817265832
H 4.5254842347 1.6425752850 0.0431777086
H -0.9252443635 2.0136712214 -0.4559015716
H -0.1126599602 2.8235942909 0.9059661820
H -0.6910609401 4.4713065471 -0.8904850183
H 1.0707818836 4.3428130818 -0.7100491897
H 0.2525284974 3.5338054811 -2.0665997795
