23
CONF3
C -2.9609225230 -1.2632278052 -1.1944778237
C -1.9817601263 -0.7809337398 -0.1538542203
C -0.5415050128 -0.6306360864 -0.7522948376
C 0.5966623369 -0.4565885029 0.3131477246
C 1.9231876103 0.1279433842 -0.2910076830
C 3.1774450669 -0.1195135429 0.6149850456
C 4.4021801758 0.7906280199 0.2695169900
F 4.1744228950 2.0574894404 0.6315332696
F 5.4738042602 0.3418387701 0.9363395643
F 4.6602420100 0.7480933550 -1.0450483568
F 3.5700989896 -1.4038573793 0.4763023014
F 2.8526819290 0.1086303129 1.9086282460
F 2.1528853956 -0.4448017389 -1.4947446684
F 1.7680267748 1.4606670791 -0.4621844027
F 0.1736582109 0.3766296133 1.2894311372
F 0.8657988974 -1.6670986946 0.8555042594
F -0.5401132042 0.4467636831 -1.5767427435
F -0.2609546675 -1.7363857047 -1.4841637393
F -1.9009628140 -1.6515984081 0.8968478578
F -2.3469164961 0.4340911934 0.3454440490
I -4.9643324582 -1.3794472258 -0.3824163073
H -3.0017083489 -0.5683531214 -2.0329259850
H -2.7045307581 -2.2661432723 -1.5299062935
