29
CONF17
C 4.6508638393 -0.5990813760 0.0820686476
N 3.3301935017 -0.0064318497 0.1755227745
C 2.3378344589 -0.3151631026 -0.6943827825
O 2.4062541059 -1.0698075378 -1.6367320175
O 1.1967242553 0.3784815285 -0.3128347967
C 0.0699615711 0.3025196859 -1.1231497603
C 0.1288996547 0.5956839546 -2.4792576048
C -1.0464186898 0.5890108481 -3.2209062211
C -2.2633792394 0.2999080381 -2.6093831150
C -2.3052862190 0.0124266311 -1.2504353922
C -1.1371550498 0.0069645894 -0.4918221843
C -1.1551257012 -0.2918614138 0.9813749601
O -1.0848521905 0.9189471310 1.7255339410
C -1.6614789510 0.5797480618 2.9859893259
C -2.8327858513 -0.3105661166 2.5772941795
O -2.3685044350 -0.9399507424 1.3740861296
H 4.6573016834 -1.2725966916 -0.7765292061
H 5.4191111748 0.1683976629 -0.0658903770
H 4.8922454955 -1.1743482662 0.9831998964
H 3.1152904036 0.6412474509 0.9153800773
H 1.0826116213 0.8167915495 -2.9420420226
H -1.0077122838 0.8122271958 -4.2821196690
H -3.1783613162 0.2948135519 -3.1921623973
H -3.2410232033 -0.2274665096 -0.7590648755
H -0.3073489511 -0.9435157425 1.2588294757
H -1.9575215173 1.5021566285 3.4901766275
H -0.9382533717 0.0297211833 3.6090528697
H -3.7315219333 0.2807935587 2.3577397073
H -3.0705636556 -1.0790492080 3.3204635241
