48
CONF5
C -2.5566584172 -0.7610453022 -2.2271248897
C -2.9901001647 0.0482193511 -1.0055966245
C -3.5789903552 1.4321124251 -1.3971907995
C -4.7547438583 1.6048178180 -0.4436797920
N -5.2927997444 0.2410384356 -0.3863611299
C -4.1442432718 -0.6357256793 -0.1904771852
N -3.6431795756 -0.7188785310 1.2102250096
C -2.3151370354 -0.3315240360 1.2531663993
C -1.8854758661 0.1676631730 0.0149440484
C -0.6007053450 0.6516333849 -0.1457977713
C 0.2594456558 0.6053083741 0.9504983910
C -0.1371299955 0.0860633022 2.1731933554
C -1.4385794268 -0.3937919215 2.3399195711
O 1.5555518662 1.1383178896 0.8285602650
C 2.5092590740 0.3014193641 0.2976865863
O 2.2940258171 -0.8428697078 -0.0515822928
N 3.6914177273 0.9749183936 0.2452619925
C 4.9309009449 0.5151064120 -0.2316990193
C 5.9866993124 1.4378911028 -0.2346960687
C 7.2445989291 1.0620670345 -0.6862436380
C 7.4733631998 -0.2351160817 -1.1425821633
C 6.4231455212 -1.1484527445 -1.1372078339
C 5.1547497187 -0.7901028363 -0.6861904889
C -4.0832198726 -1.8175236355 2.0610750171
C -6.3970193436 0.0653907672 0.5470452958
H -2.1469235137 -1.7311439386 -1.9288846959
H -3.4117192400 -0.9284312341 -2.8907519928
H -1.7876863945 -0.2198577622 -2.7886896781
H -2.8334954714 2.2273497310 -1.3180603310
H -3.9421866417 1.3972999102 -2.4297077660
H -5.5173191845 2.2997057938 -0.8117348157
H -4.3910603165 -1.6496949448 -0.5381659200
H -0.2508984038 1.0411826541 -1.0977491551
H 0.5712087995 0.0552466665 2.9950020015
H -1.7500508118 -0.7977231046 3.2970845561
H 3.6649694308 1.9298634292 0.5759027576
H 5.8152437737 2.4506115750 0.1191495759
H 8.0492754962 1.7906955484 -0.6808727942
H 8.4562793458 -0.5282255709 -1.4961873085
H 6.5847988346 -2.1633139833 -1.4878583051
H 4.3513379240 -1.5123197096 -0.6873856383
H -3.4564016581 -2.7145680795 1.9300643972
H -4.0523446664 -1.5242052906 3.1159249442
H -5.1155740540 -2.0760122183 1.8197451292
H -6.7671597420 -0.9648628961 0.4984105536
H -7.2161624492 0.7350867502 0.2645242914
H -6.1177566728 0.2871340449 1.5922634963
H -4.4166730589 1.9623890890 0.5482546442
