47
CONF125
C 5.0923777707 -1.7119962509 -0.4374550728
C 3.8108546070 -0.9596150816 -0.2373666198
C 2.5846943919 -1.6608897183 -0.0412179963
C 2.5717985842 -3.1576596758 -0.0442978814
C 1.3967713974 -0.9688058630 0.1467430355
C 1.3764289261 0.4311172159 0.1475219742
N 0.2204966011 1.1633286804 0.3413200862
C -1.0502709756 0.4788967736 0.6469973796
C -1.7955085804 0.0605378226 -0.6198096768
O -2.0584107228 1.1806807207 -1.4708494164
C -3.1253539654 -0.6346722385 -0.2878875991
O -4.0269795990 0.2640032038 0.3603765761
C -2.9788497869 -1.8422636713 0.6454949525
O -1.8435720167 -2.6340408658 0.2825361016
C -4.2329203170 -2.7118248570 0.6780057673
O -4.3806902160 -3.4471554152 -0.5464182982
C 0.2297673217 2.5320569973 0.2455838723
N -0.9183001405 3.1818437764 0.3261399147
C -0.9161920382 4.5476805671 0.2650571634
O -1.9434703482 5.2182462273 0.3226137917
N 0.3175580849 5.2136629033 0.1296627265
C 1.5590045276 4.6363133545 0.0109847353
O 2.5827008478 5.2917789408 -0.1208824846
C 1.5173695153 3.1517476629 0.0571210440
N 2.6369993269 2.4944870456 -0.0857784495
C 2.5930344591 1.1400616834 -0.0611321749
C 3.7891241109 0.4168214404 -0.2450229272
H 5.0326072733 -2.3633598267 -1.3164426445
H 5.3083687187 -2.3569004755 0.4215279288
H 5.9287896475 -1.0240343529 -0.5728155499
H 1.5654886114 -3.5453643282 0.1228610487
H 3.2336737521 -3.5526837539 0.7348504411
H 2.9444653568 -3.5475604301 -0.9984858414
H 0.4843381295 -1.5396533642 0.2713840654
H -0.8196769745 -0.3901254682 1.2635267612
H -1.6611609883 1.1654373252 1.2350892205
H -1.1809341650 -0.6384289731 -1.1978010610
H -2.0849682491 1.9808481121 -0.9177203712
H -3.5433582956 -0.9593617447 -1.2556552153
H -4.2212743407 0.9753371995 -0.2647647298
H -2.7985580666 -1.4701799867 1.6624820322
H -2.1292097219 -3.1922959181 -0.4570143157
H -5.1160735603 -2.0974672915 0.8887879652
H -4.1241972616 -3.4598601203 1.4693235656
H -4.8006792936 -2.8741454330 -1.1992748448
H 0.2751028634 6.2259902312 0.0986900726
H 4.6987954124 0.9894676278 -0.3965883532
