39
CONF8
C 1.6301698809 -2.7649683715 0.5260263035
C 1.2158725661 -1.5662095803 -0.3330057793
C -0.1525668755 -1.8270221888 -0.9906429525
C -1.3378551016 -1.5092248804 -0.0702221429
C -1.8479183919 -0.0547961009 -0.2328873524
C -0.7749483090 0.9802252424 -0.4365418686
C 0.5218605686 0.9041833719 -0.1339524244
C 1.2316144261 -0.2736773942 0.5213933206
C 2.6713694531 0.2447495561 0.7489281520
C 2.8718141494 1.2794243335 -0.3603949907
C 1.5273100364 2.0182524277 -0.3957752188
C 1.2924094678 2.8381463925 -1.6578786780
C -2.8146881254 0.3048168981 0.8863107295
C -2.5306254486 1.2211220299 1.8137198537
C -4.1104761275 -0.4574498045 0.8974906217
H 2.5657334324 -2.5818764452 1.0630300253
H 1.7657184548 -3.6598499321 -0.0898450905
H 0.8592595930 -2.9864265640 1.2736463876
H 1.9567532492 -1.4439365050 -1.1362955023
H -0.2456995339 -1.2294623392 -1.9042078196
H -0.1885705240 -2.8780049974 -1.3013953369
H -1.0713268327 -1.6899253149 0.9777468244
H -2.1696492196 -2.1858902617 -0.2903122839
H -2.4446086401 -0.0509242058 -1.1616248424
H -1.1377489489 1.9031229139 -0.8885620997
H 0.7523708679 -0.5058058560 1.4807345726
H 2.7449112432 0.7379185863 1.7254637960
H 3.4169805491 -0.5552557921 0.7285046597
H 3.0370264590 0.7790259007 -1.3244499734
H 3.7204719955 1.9476330919 -0.1834671762
H 1.5062871652 2.6971861992 0.4729863061
H 2.1048758617 3.5570843033 -1.8074000116
H 1.2451589241 2.1828702550 -2.5343570963
H 0.3572697386 3.4036017762 -1.6093344936
H -1.5910937536 1.7640128363 1.7985711322
H -3.2316015126 1.4453612986 2.6121910107
H -4.6208644032 -0.3724723013 -0.0698918166
H -3.9430852621 -1.5265089754 1.0734186446
H -4.7819116648 -0.0890487140 1.6765431102
