65
CONF358
C -1.0342489414 3.3549137753 -1.8803266166
C -2.4455535982 2.8798452789 -2.2159939782
C -3.2877216002 2.5652852627 -0.9723819791
C -4.7160308214 2.1438016424 -1.3499958053
C -2.6640545394 1.4872816502 -0.1091968508
O -2.4597931962 1.5873466145 1.0871775858
O -2.3928793575 0.3806067412 -0.8253533619
C -1.9073472064 -0.7994806822 -0.1101904211
C -3.0972313366 -1.6270093517 0.3447357612
C -2.6287676083 -2.8782972334 1.1029105993
C -1.4978601983 -3.5471431160 0.3794309320
C -0.7719662249 -2.9742832285 -0.5988954964
C -1.0342795026 -1.5644474894 -1.0906167793
C 0.3043463131 -0.8593500840 -1.3946594753
C 0.9998627554 -1.6334559632 -2.5330709950
C 1.1197846397 -3.0878664713 -2.1636354025
C 0.3173401854 -3.6774066024 -1.2604868488
C 2.3458866271 -1.0318428756 -2.9472282500
C 1.1791619296 -0.7312975365 -0.1244669553
C 1.4024412130 0.7236433442 0.2897614469
C 2.1124047282 0.8550090599 1.6253350535
C 3.5231665286 0.3014307782 1.6460735831
C 4.1957415902 0.6571215411 2.9604911823
C 4.2668812852 2.1746642587 3.0764889133
C 3.0012316755 2.9102203654 2.7032937070
O 2.8080317939 4.0690118362 3.0190643213
O 2.0784274919 2.2977803829 1.9414486622
O 5.4902701758 0.0665058658 3.1012996220
C -2.2388710466 -2.5690934013 2.5599401939
H -0.4711909591 2.5808495781 -1.3475208426
H -0.4771690531 3.6021869177 -2.7889706465
H -1.0609829884 4.2470776145 -1.2452878101
H -2.9741668777 3.6559794565 -2.7825702506
H -2.4050007089 1.9912037519 -2.8563147337
H -3.3336191129 3.4570552586 -0.3374463345
H -5.2088673540 2.9617885353 -1.8837689709
H -4.6986904505 1.2657966146 -2.0025140431
H -5.3101010707 1.9063475910 -0.4620713988
H -1.3255530142 -0.4568196591 0.7503302198
H -3.7527279717 -1.0220620747 0.9806975845
H -3.6676668718 -1.9242387796 -0.5439032603
H -3.4710278394 -3.5834067814 1.1391339654
H -1.2475752989 -4.5615782163 0.6901953487
H -1.5921072990 -1.6389432522 -2.0374899140
H 0.0754630301 0.1461982095 -1.7707605891
H 0.3384784249 -1.5604525538 -3.4120865733
H 1.9033660776 -3.6684066600 -2.6478352201
H 0.4634081053 -4.7241930135 -1.0001503506
H 3.0904961413 -1.1071959825 -2.1483760589
H 2.7432849840 -1.5583473379 -3.8209499597
H 2.2297221203 0.0253895985 -3.2080283482
H 0.7117651229 -1.2735849158 0.7086953145
H 2.1431793860 -1.2213072033 -0.2860945166
H 1.9823262823 1.2518386901 -0.4787169494
H 0.4350178292 1.2337515575 0.3725891250
H 1.5153929862 0.3721681434 2.4110830535
H 4.1015435390 0.7070852324 0.8037147005
H 3.4708310774 -0.7859222281 1.5367717057
H 3.6064587956 0.2484662080 3.7903465665
H 5.0317613699 2.5464731177 2.3783997430
H 4.5617677045 2.4993474210 4.0775766247
H 6.0453133638 0.3944190998 2.3803934179
H -1.9021422192 -3.4768787880 3.0706707544
H -3.0961816203 -2.1640619013 3.1076315137
H -1.4231803217 -1.8395185896 2.6016745944
