76
CONF1743
C 2.5089378434 -2.5380577909 1.0145769977
C 2.8565366457 -1.0499744945 1.1384666985
C 3.7713848587 -0.8301566589 2.3586127907
C 5.2226336463 -1.3052107994 2.1477024270
C 5.9132844086 -0.5096795944 1.0816870103
O 6.1011830827 0.7759652182 1.4596803244
N 6.3074902047 -0.8799504593 -0.0732061125
C 6.1100450310 -2.2446462922 -0.5269144566
C 6.6808640685 -2.4053143050 -1.9274856118
O 7.2259763338 -1.2995028794 -2.4468210955
O 6.6492389757 -3.4522261735 -2.5410015935
C 1.6131262022 -0.1515893260 1.2513757282
C 1.9818174079 1.3636470984 1.3194413683
C 0.8315493870 2.1432923124 0.6365288073
C -0.2514297639 1.0845226686 0.4357298443
C -1.3744103432 1.3858357611 -0.5504397924
C -2.0723050360 2.7107385544 -0.2327872247
O -2.4187450951 2.7167504100 1.1694981274
C -3.2891362103 2.9388680248 -1.1310713431
C -4.2572364297 1.7504046552 -1.2121554464
C -5.0938009478 1.5996261279 0.0720371572
C -6.0790299404 0.4428783315 -0.0137158420
O -6.8023844503 0.2728970562 1.2228956414
C -5.3438394491 -0.8525525159 -0.3037096417
C -4.5547954134 -0.7095560964 -1.6034660926
C -3.5208192239 0.4390781324 -1.6046848638
C -3.0011061382 0.5502500579 -3.0490829992
C -2.3608677602 0.1951862377 -0.5939884925
C -1.6127546054 -1.1247413552 -0.8352445066
C -0.4418484915 -1.3813156446 0.1255123391
O -0.9181120220 -1.5736326220 1.4735052081
C 0.5449560743 -0.2035087185 0.1164693842
C 1.2405216191 -0.1386734827 -1.2532203671
H 1.7775750006 -2.8196222407 1.7807942665
H 3.3930532348 -3.1691372036 1.1521409328
H 2.0880781706 -2.7824970047 0.0366788026
H 3.4124619615 -0.7376729828 0.2405695856
H 3.8018657645 0.2279364773 2.6301236596
H 3.3550952391 -1.3679272243 3.2197299657
H 5.2601767557 -2.3673072994 1.8994383162
H 5.7822325295 -1.1654352661 3.0796254961
H 6.5256136760 1.2520733188 0.7269410602
H 5.0505982745 -2.5320972399 -0.5865964818
H 6.6102191393 -2.9911795990 0.1062027198
H 7.1189664894 -0.6054676715 -1.7491345716
H 1.0986857308 -0.4244980357 2.1819293227
H 2.1121511176 1.6858314873 2.3563633817
H 2.9377407626 1.5435810495 0.8122589795
H 1.1498939608 2.5529950082 -0.3297901585
H 0.4796012534 2.9830188069 1.2426052405
H -0.7201760780 0.9062006663 1.4116787641
H -0.9315361625 1.5233174468 -1.5457700522
H -1.3537728269 3.5267010271 -0.4146172486
H -2.9655369527 3.4967453118 1.3251449588
H -2.9125749431 3.1709519868 -2.1349660118
H -3.8255981136 3.8359544041 -0.7916202005
H -4.9671979056 1.9636143710 -2.0267065989
H -4.4476389428 1.4373544138 0.9396806078
H -5.6378155031 2.5381436776 0.2493713236
H -6.7974954060 0.6319262957 -0.8301022986
H -7.2510090506 1.1066105628 1.4133943951
H -4.6777784211 -1.0807891624 0.5390329197
H -6.0606582349 -1.6783017100 -0.3853935921
H -5.2662731418 -0.5071072773 -2.4171790799
H -4.0667918124 -1.6555653124 -1.8593035175
H -3.8210292817 0.8467725256 -3.7130268094
H -2.1987507136 1.2823649571 -3.1654215451
H -2.6246276622 -0.4148477770 -3.4032876940
H -2.8065085192 0.1302097087 0.4063563494
H -2.3042561099 -1.9712200399 -0.7415584047
H -1.2264786086 -1.1627787026 -1.8598342684
H 0.0654042626 -2.2985373898 -0.2049065659
H -1.6046440563 -2.2513492200 1.4389340070
H 0.5474229700 0.1017537542 -2.0627833001
H 2.0281468822 0.6194495816 -1.2571581806
H 1.7062390131 -1.0998200239 -1.4949465367
