48
CONF62
C -0.6465753885 -3.8916354382 0.3890254894
O -0.8753639492 -2.8458575386 1.3447059971
N -1.3417809932 -1.7327320190 0.6827285441
C -1.5387915001 -0.7298230332 1.4753867562
C -1.2725270540 -0.7290322661 2.9329547096
C -2.3126278884 -0.5129481866 3.8398044963
C -2.0953314489 -0.5666508929 5.2101107138
C -0.8194120043 -0.8264195105 5.6999824927
C 0.2359186191 -1.0240387847 4.8181050793
C 0.0032632238 -0.9707929203 3.4532685973
O 1.0913876723 -1.2541940951 2.6282009301
C 1.3734706967 -0.4040564426 1.6177916646
C 2.0147205305 -0.9233176459 0.4984298618
C 2.2412577596 -0.0471071089 -0.5552677929
N 1.9116923999 1.2366208946 -0.4911443546
C 1.3396679529 1.6351566749 0.6468300534
N 1.0555040795 0.8825967605 1.7053173645
O 2.8256805201 -0.5566187936 -1.6706245641
C 2.7043158980 0.1730979263 -2.8451458897
C 3.8465786086 0.7227646504 -3.4057962519
C 3.7693999238 1.3798972588 -4.6283327197
C 2.5473438541 1.4859419625 -5.2845432085
C 1.4007219603 0.9305576269 -4.7262427279
C 1.4799475471 0.2678114681 -3.5074790643
Cl 0.0561370582 -0.4509635818 -2.8018519264
F 2.3313123200 -2.2213198990 0.4079452827
C -2.0664458309 0.4808543344 0.8290179036
N -2.2218321731 1.5285537292 1.5698435556
O -2.7347293924 2.6816273478 0.9736997084
C -3.3620804006 2.4802168100 -0.3010330865
C -2.4701236778 1.6228101243 -1.1624825507
O -2.2978171869 0.3576736541 -0.5020630346
H 0.0901740117 -3.5762398873 -0.3560414545
H -0.2569951240 -4.7283896550 0.9714264114
H -1.5837126415 -4.1731781061 -0.1026365853
H -3.3032414502 -0.3064388756 3.4510764230
H -2.9213331740 -0.4028785198 5.8935047692
H -0.6397131692 -0.8667795035 6.7691210684
H 1.2435786508 -1.2145361719 5.1697077676
H 1.0730348963 2.6884711000 0.7157629342
H 4.7831354186 0.6280468397 -2.8677159415
H 4.6640134110 1.8104455907 -5.0644248197
H 2.4804723943 1.9980229131 -6.2382701293
H 0.4446697226 0.9980383110 -5.2325507907
H -4.3377480987 1.9930904773 -0.1610106497
H -3.5047422869 3.4802944901 -0.7193216626
H -2.9156977166 1.4010756656 -2.1349436096
H -1.4887766702 2.0922823981 -1.3061004373
