40
CONF11
C -2.7053221259 -2.2679264695 -0.5797930688
C -3.5173235253 -0.9845990187 -0.3888101226
C -4.0702131708 -0.4947323679 -1.7269417125
C -2.6926426149 0.1099576487 0.3413909345
C -2.1866745635 -0.4301956855 1.6873401553
O -2.8373935766 -0.8254260134 2.6346404723
N -0.8092003678 -0.3668574480 1.6029375124
C -0.4487920677 0.1273175837 0.3662318381
N -1.4549554005 0.4191822568 -0.3853240143
C 0.9779242918 0.2900271792 0.0233334887
N 1.7538800075 0.0054374112 1.0594840271
C 3.0978257967 0.1116271344 0.9599775663
C 3.9016018788 -0.1927887190 2.0829289479
C 5.2685484773 -0.0820228755 1.9890257695
C 5.8831866791 0.3319636974 0.7844201917
C 5.1238739215 0.6322052454 -0.3212392303
C 3.7150785730 0.5275636775 -0.2554573748
C 2.8718538953 0.8047624171 -1.3426829185
C 1.4959087499 0.7001287128 -1.2554646043
C 0.7747302848 1.0245523572 -2.5611511061
O 1.4407863210 1.2259530872 -3.5676110840
O -0.5356732539 1.1006230865 -2.6027915082
C -3.4894663162 1.3947759801 0.5924598738
H -3.3346246597 -3.0391897540 -1.0328909905
H -1.8540060754 -2.0952965508 -1.2472623765
H -2.3271083778 -2.6631587963 0.3688544218
H -4.3560485556 -1.1968540887 0.2876309249
H -4.7489295683 0.3537727829 -1.6121739102
H -3.2592793400 -0.2028692169 -2.4031036114
H -4.6285757311 -1.3049659663 -2.2056272275
H -0.1470459389 -0.6324212064 2.3189396302
H 3.4175879844 -0.5083003601 3.0012260696
H 5.8891515949 -0.3138639021 2.8485836194
H 6.9643089272 0.4110299432 0.7386904402
H 5.5875905688 0.9493439493 -1.2504004721
H 3.3049002822 1.1082696467 -2.2894220770
H -1.0132429154 0.8513078890 -1.6917866339
H -2.9096625343 2.0880587566 1.2084663867
H -4.4185135142 1.1482423880 1.1138688152
H -3.7240441460 1.8853653068 -0.3537917366
