59
CONF254
C 6.4067596083 2.0292201148 4.1042585190
C 6.6871481107 0.6484124769 3.5059050256
C 5.7609705163 0.6126536064 2.2824697306
C 4.4918676743 1.4279695571 2.6933960674
C 4.8787406168 2.1107867492 4.0337109828
C 3.2711053223 0.5270447017 2.8571828793
C 2.7855612597 -0.0823205060 1.5674943313
O 2.1494816878 -1.1275157391 1.5433058594
N 3.0788245423 0.5916271195 0.3779522136
C 3.6944032505 1.8461555136 0.3233352352
O 3.8471736494 2.4151290204 -0.7490708348
C 4.1233579366 2.4599925097 1.6290794773
C 2.6073813621 -0.0053782932 -0.8859025166
C 1.1785179339 0.4172649504 -1.2136309961
C 0.6955723414 -0.2327629519 -2.5076026630
C -0.7118184136 0.2008397712 -2.9133149335
N -1.7211781902 0.0051318447 -1.8642419794
C -1.9007701167 -1.4145419811 -1.5384450486
C -2.9534184430 -1.5845407879 -0.4463656528
N -4.2223079690 -0.9883255209 -0.8673175949
C -4.0544584283 0.4283698283 -1.1981213980
C -3.0004953845 0.5855087183 -2.2898059208
C -5.2060610976 -1.7427964956 -1.4455833861
N -5.1202081999 -3.0896758605 -1.3164936569
C -6.1246858459 -3.7996570792 -1.8267145095
C -7.2144542297 -3.2248229152 -2.4704121904
C -7.1974577977 -1.8377991500 -2.5614271773
N -6.2160275529 -1.0855565809 -2.0670079682
H 6.8599833884 2.8057382659 3.4747035559
H 6.7916669335 2.1523583017 5.1211519187
H 7.7372600176 0.4858286129 3.2451040622
H 6.3941666510 -0.1274941389 4.2245090933
H 5.5141723818 -0.4067949860 1.9676353675
H 6.2561956415 1.1036714617 1.4360425777
H 4.4499093780 1.5393292858 4.8660738770
H 4.4896180908 3.1317188903 4.0991990989
H 3.4655937850 -0.3006664249 3.5461964462
H 2.4320247688 1.1033990384 3.2743741609
H 3.2798866085 3.0733722302 1.9789512182
H 4.9512547468 3.1404115907 1.4106468810
H 2.6688255298 -1.0904886914 -0.7775547111
H 3.2953745657 0.3111153806 -1.6724277382
H 0.5208986447 0.1352321453 -0.3846908570
H 1.1322418260 1.5097578663 -1.3065460885
H 0.7544681941 -1.3246765434 -2.4179122543
H 1.3698707752 0.0395213068 -3.3296616650
H -0.9998654652 -0.3306703126 -3.8424761354
H -0.6965524531 1.2732138185 -3.1487478902
H -2.2049656624 -1.9980624263 -2.4319291873
H -0.9546344122 -1.8282619163 -1.1740909689
H -2.6243370516 -1.0632797829 0.4614664789
H -3.0956803164 -2.6390126047 -0.2149656664
H -3.7214752068 0.9464108937 -0.2900379703
H -3.3730375470 0.1071664101 -3.2190605825
H -2.8517109203 1.6514944437 -2.4993545471
H -6.0502494654 -4.8814259879 -1.7184007159
H -8.0201963793 -3.8195028180 -2.8818466237
H -8.0068800620 -1.3036316349 -3.0584113799
H -5.0051032726 0.8521314368 -1.5183031092
