55
CONF30
C 1.1206823434 1.6538531673 0.6487137504
C 2.2570014276 0.6914392218 0.3425116201
N 2.9867915379 0.3436227967 1.5671088519
C 2.0512671727 -0.2437456354 2.5314754658
C 0.9218260367 0.7270101488 2.8380134755
N 0.1896023894 1.0626519760 1.6135810321
C -0.9402389032 1.9487643424 1.8980677825
C -1.9662284312 1.9823693725 0.7480903142
C -2.6404166023 0.6569925593 0.6087207201
C -2.4049775493 -0.3120800975 -0.2965730031
C -3.0287930583 -1.6420436145 -0.1430389880
C -4.3834494397 -1.7957690411 0.1741393225
C -4.9291728039 -3.0548573673 0.3948311113
C -4.1291086153 -4.1909233728 0.2817394313
C -2.7886061335 -4.0664474293 -0.0664931777
C -2.2458732367 -2.7987083181 -0.2803128534
S -0.5093994259 -2.6775405589 -0.6621431351
C -0.5047385316 -1.2010306898 -1.6432673879
C -1.4465848833 -0.1855304893 -1.4116128800
C -1.4455252622 0.9220668929 -2.2661383745
C -0.4703484924 1.0575366314 -3.2456198179
C 0.5092059815 0.0759011059 -3.4162652495
C 0.4765220742 -1.0625905448 -2.6291959064
C -0.4414611587 2.2534863881 -4.1441973099
F -0.5521851535 1.9070693880 -5.4560929598
F 0.7317506031 2.9366825301 -4.0357271595
F -1.4332454355 3.1338831303 -3.8862001531
C 4.1120602136 -0.5583488846 1.2939425574
C 5.2856993531 0.2127033033 0.7041881922
O 5.6415474625 1.3124529896 1.5493704913
H 0.5947538406 1.8738159621 -0.2864431825
H 1.5411782179 2.6057283121 1.0324302019
H 1.8461598601 -0.2172059745 -0.1397655651
H 2.9384878253 1.1684346978 -0.3700558008
H 1.6191005418 -1.1878608265 2.1435953620
H 2.5930701253 -0.4736661471 3.4559435719
H 0.2299866234 0.2582756497 3.5475250086
H 1.3417766063 1.6323137492 3.3218355484
H -1.4377142491 1.5816170818 2.8044218364
H -0.6028801674 2.9824346270 2.1070778858
H -1.4761137117 2.3035132050 -0.1719931657
H -2.7118032490 2.7482238026 0.9947920067
H -3.3203111134 0.4061261319 1.4230731780
H -5.0062016752 -0.9094275407 0.2481855338
H -5.9803810650 -3.1506709410 0.6464672368
H -4.5504746705 -5.1773213720 0.4460965861
H -2.1652860723 -4.9486339331 -0.1748017951
H -2.2153443268 1.6758653847 -2.1530445135
H 1.2730800567 0.1855224477 -4.1792711232
H 1.2062958016 -1.8509714621 -2.7824426053
H 3.8276801643 -1.3871591903 0.6176463819
H 4.4286954085 -0.9985145317 2.2473362168
H 6.1574919405 -0.4457874670 0.6329357467
H 5.0532297944 0.5691877718 -0.3107232708
H 4.7919196281 1.6672906301 1.8588577660
