52
CONF32
C 1.2388515824 3.3130909444 0.9772665258
C 1.6988900695 2.1953454721 0.0703726639
C 3.0885302458 2.4337907863 -0.5251781885
C 3.4287665713 1.3718551639 -1.5790379243
C 2.3076249382 1.2523400489 -2.6196041762
C 0.9385453477 1.1064936487 -1.9530700291
O 0.7075221536 2.1011601891 -0.9967549486
O 0.8914251583 -0.2318217582 -1.3781130777
C -0.3641737687 -0.6189784165 -0.9638921142
C -0.6160549715 -0.8198357787 0.3641901595
O -1.8556798700 -1.1601330142 0.8092071610
C -2.8972770733 -1.3136959242 -0.0636228593
C -4.1275442538 -1.6233313133 0.4877289002
C -5.1961043098 -1.8124625425 -0.3896056160
C -5.0460460618 -1.6976121556 -1.7770887955
C -3.8016295581 -1.3872043443 -2.3040945263
C -2.6878652560 -1.1822901135 -1.4446530104
C -1.3888912767 -0.8398279097 -1.9625834496
O -1.1615693601 -0.7254768791 -3.1952776618
O -3.6511304219 -1.2740493578 -3.6334096652
O -6.3912733090 -2.1180318369 0.1707062574
C 0.3539244891 -0.6934988836 1.4473091215
C 1.6267932578 -1.2701827261 1.3251302277
C 2.5776720899 -1.0638411588 2.3097617653
C 2.2640452434 -0.2870300031 3.4407149968
C 0.9883807418 0.2501068330 3.5769748762
C 0.0328709398 0.0458289279 2.5902250165
O 3.1870113547 -0.0622871785 4.4092320217
O 3.8428176754 -1.5740002122 2.2773391978
O 2.2849454430 2.3935243919 -3.4756930274
O 3.7051219500 0.1143123943 -0.9435733722
O 4.0761754683 2.4394267635 0.5025241642
H 0.2467377059 3.0892173516 1.3793367544
H 1.9359778753 3.4202530019 1.8115667983
H 1.1960284995 4.2590247153 0.4272866577
H 1.7094264408 1.2475320832 0.6230706501
H 3.1130942617 3.4281274322 -0.9900985618
H 4.3535019020 1.6587538110 -2.0910450379
H 2.4937125829 0.3840978152 -3.2598191097
H 0.1408524962 1.2089981042 -2.6933762129
H -4.2548556750 -1.7236022652 1.5584524745
H -5.8895531024 -1.8501257078 -2.4431531834
H 1.8639526580 -1.8997416294 0.4720883421
H 0.7627853659 0.8415946397 4.4581352183
H -0.9500818824 0.4927312619 2.6878945047
H 4.0160085474 -0.5002862042 4.1643153426
H 3.9945619933 -2.0419794693 1.4449559613
H 1.9239306162 3.1419545143 -2.9799740636
H 2.8579718104 -0.3122801919 -0.7443680573
H 4.2543655945 1.5076697085 0.7062829526
H -7.0590365931 -2.2336136633 -0.5196902145
H -2.6875840625 -1.0502168417 -3.7800824204
