44
CONF79
C 3.4268297941 -2.5057094744 -1.2409514909
C 2.8409331462 -1.1291675308 -0.9408094371
C 3.8198013806 -0.1889968461 -0.1413176156
N 2.9934336027 0.6787118247 0.6733743262
C 1.7639196512 0.1042422913 1.2466068201
S 1.3474937772 -1.3391567286 0.1867768861
C 1.0593050978 1.4855880346 1.0011202455
C 2.3704423419 1.8519289541 0.2564000005
O 2.7449987148 2.7535836889 -0.4542104003
N -0.1321357486 1.5151873808 0.2236676913
C -1.2763377691 2.1186240977 0.6274812533
O -1.3886826997 2.7671158369 1.6667041075
C -2.4805601614 1.8881894875 -0.3019674865
C -3.3319224526 0.8019283132 0.3255683537
C -4.5088267343 1.1246738216 1.0007010884
C -5.2793790187 0.1402162143 1.6124830613
C -4.8700192603 -1.1922494625 1.5510272297
C -3.6935961043 -1.5319459266 0.8786047129
C -2.9337265228 -0.5383786821 0.2766655341
O -5.5795157923 -2.2074365450 2.1266646237
N -2.0512504970 1.4995809864 -1.6518998524
C 4.8433683370 -0.9625035904 0.6746215099
O 4.3816913586 -1.3092568122 1.8853032743
O 5.9433457902 -1.2494957794 0.2563201650
C 2.4180091587 -0.4375940082 -2.2377498550
H 3.7028858134 -3.0442726313 -0.3306613966
H 4.3150100789 -2.3927936433 -1.8712426924
H 2.6971028951 -3.1074245936 -1.7894894775
H 4.3828486022 0.4192809025 -0.8555455097
H 1.8395106965 -0.2102691023 2.2887631433
H -0.1813743956 0.9954181715 -0.6468159702
H -3.0504793929 2.8280905708 -0.2712373985
H -4.8349207714 2.1598521317 1.0477833401
H -6.1974544993 0.4038452735 2.1309128222
H -3.3850788466 -2.5717658519 0.8372220329
H -2.0181072378 -0.8111950885 -0.2395322505
H -6.3654373435 -1.8472831625 2.5598185867
H -2.8559663179 1.1621885214 -2.1698370003
H -1.7092989323 2.3169470493 -2.1486283948
H 1.6542683320 -1.0331583448 -2.7444802018
H 2.0066788285 0.5587345289 -2.0557057226
H 3.2852775899 -0.3420384837 -2.9008398123
H 0.9069837368 2.0559124301 1.9219865295
H 5.0708309540 -1.8185349202 2.3477776876
