23
CONF1
C -1.4495145362 1.3644715121 1.1232486993
C -1.1849645678 0.2396201656 0.1169894191
C -1.9626707057 -1.0158557980 0.4957995965
C 0.3153841341 0.0216631505 -0.0422279379
C 1.0728038962 0.9623674013 -0.7487270693
C 2.4498380346 0.8164775831 -0.8781608679
C 3.0978055291 -0.2726493525 -0.2960800437
C 2.3540948448 -1.2109906341 0.4126954935
C 0.9723137906 -1.0655162481 0.5371964431
O -1.7297745753 0.8105653664 -1.1038185276
O -1.5331506692 -0.1293816818 -2.2061025137
H -2.5248074706 1.5374178925 1.2273160372
H -1.0421636187 1.0719001278 2.0945048684
H -0.9611491144 2.2895039859 0.8050909373
H -3.0329081097 -0.7916135508 0.4654576217
H -1.7490845399 -1.8430788245 -0.1858011996
H -1.7124755551 -1.3315790174 1.5116800342
H 0.5737324753 1.8090389051 -1.2091377124
H 3.0194698803 1.5543091865 -1.4354183457
H 4.1726688275 -0.3877505812 -0.3962651362
H 2.8465749640 -2.0638284188 0.8702014769
H 0.4136580471 -1.8108425732 1.0924475834
H -2.4056803683 -0.5542482895 -2.2508888514
