47
CONF185
C -4.9821000706 2.3710465169 -2.0567460989
O -5.5477675201 1.9430842443 -0.7793218176
P -5.9389979097 0.4168128123 -0.5363468912
S -6.6560892167 0.1042041529 1.2343237332
O -6.8499709627 0.0985553883 -1.8100714895
C -7.4333956085 -1.2251064567 -1.9686630893
O -4.6210248162 -0.4668596945 -0.9247744614
C -3.6248910702 -0.7556804679 0.0079172977
C -3.4524514160 -2.0791325149 0.3843542129
C -2.4185942754 -2.4060987264 1.2566033373
C -1.5885745034 -1.4047307618 1.7635032652
C -1.7888349100 -0.0730114677 1.3886058452
C -2.7999832622 0.2534444821 0.4946784721
S -0.3354009771 -1.8566793011 2.9568273632
C 1.1221377262 -1.0289002914 2.3327052758
C 2.0335743783 -0.5211963174 3.2615925481
C 3.2182615635 0.0645018483 2.8283294597
C 3.4662256369 0.1616322908 1.4671550126
C 2.5654482251 -0.3286916388 0.5282645066
C 1.3968078702 -0.9396444830 0.9656343795
O 4.6300571305 0.8244922046 1.0677686313
P 5.7990975520 0.0550246178 0.2443936513
S 6.2031918207 -1.7645125539 0.7682258740
O 6.9086453445 1.1881214358 0.4723852794
C 8.2328762853 0.9849204154 -0.0973946203
O 5.3844465762 0.1240052084 -1.3048410846
C 5.0457003989 1.4110948505 -1.9044900392
H -4.6630456684 3.4010836318 -1.9016925601
H -5.7468182469 2.3209515967 -2.8342665725
H -4.1243585251 1.7462140979 -2.3194948094
H -8.0032574616 -1.1856988647 -2.8963317966
H -6.6431723337 -1.9770070787 -2.0413747405
H -8.0941946772 -1.4435428980 -1.1257016939
H -4.1107304115 -2.8433234989 -0.0144559843
H -2.2592652546 -3.4411704508 1.5399298153
H -1.1513119310 0.7090437740 1.7873809112
H -2.9549199170 1.2828377299 0.1887078771
H 1.8206875094 -0.5803611400 4.3240121456
H 3.9378863436 0.4592197090 3.5371383228
H 2.7770177690 -0.2474107892 -0.5325676184
H 0.6986736840 -1.3393273283 0.2380378591
H 8.1667685109 0.8563628978 -1.1817021882
H 8.7939902361 1.8881240035 0.1394787463
H 8.7052702095 0.1122564828 0.3609208995
H 5.9034261225 2.0868391040 -1.8603912724
H 4.7912742221 1.1915834761 -2.9408299564
H 4.1876847244 1.8526299429 -1.3903699407
