31
CONF9
F 1.3356344550 -1.9866906709 0.9999982060
C 1.7747510144 -1.0538398820 0.1281842864
F 2.3621273635 -0.0521452559 0.8215281803
C 0.5820499727 -0.4837893572 -0.7005288123
F 0.9698618067 0.6871087735 -1.2524804404
F 0.2800987597 -1.3626313071 -1.6796680193
C -0.7054737677 -0.2325029881 0.1604503348
F -0.3348771120 0.3191017192 1.3401319661
F -1.3058207263 -1.4203003910 0.3962937219
C -1.7371410900 0.7255850651 -0.5323091475
F -1.3022687863 1.9993697783 -0.3995844035
F -1.8092344143 0.4186198938 -1.8465053582
C -3.1773160247 0.6217288576 0.0752302645
F -3.7684525950 -0.4980161905 -0.3908526425
F -3.0937477477 0.5534508032 1.4247550782
C -4.1045392316 1.8307560699 -0.2780373614
F -5.3613561100 1.5257683805 0.0724680595
F -4.0699307381 2.0774879588 -1.5948826439
F -3.7328556580 2.9303927714 0.3856180049
S 3.1236232621 -1.8647751901 -0.9624869021
O 3.5014891865 -0.8257836119 -1.9161014333
O 2.6084564267 -3.1817025085 -1.3210425011
N 4.3640027345 -2.0936440166 0.0913781073
C 5.3570533082 -1.0760377584 0.4648544456
C 5.4073559068 -0.8504798169 1.9694289055
H 4.3269541374 -2.9682872724 0.5983281546
H 6.3378271625 -1.3948815358 0.0901229986
H 5.0970767699 -0.1561607235 -0.0655536478
H 5.6676549979 -1.7726734444 2.4992587297
H 4.4474320831 -0.4916509322 2.3479454568
H 6.1742013145 -0.1067610714 2.2050952349
