39
CONF2
C -2.2949963139 -2.4048581397 -0.0915849212
C -1.8388555282 -1.0052144854 -0.3822903715
C -2.5364263041 -0.1696076103 -1.1634991330
C -2.1162709256 1.2267382543 -1.5322972379
C -0.6691370438 1.5687760473 -1.1219000632
C -0.3477653838 0.9724144763 0.2573848538
C -0.5186966308 -0.5695488757 0.1815129416
C -0.1648029841 -1.0032144925 1.6270987466
C 0.9183483327 0.0363599452 2.0542062950
C 1.1281105940 0.8715938533 0.7704612629
C 1.8567692537 -0.0335924425 -0.2720368443
C 0.6882913913 -0.9768621057 -0.7169456312
C 3.0156665534 -0.8628287823 0.3069715427
C 2.4747536426 0.7988922650 -1.4100200646
C -1.2751143358 1.6756511256 1.2620228203
H -2.4339291583 -2.5631013353 0.9845318986
H -1.5447680064 -3.1351869618 -0.4209724554
H -3.2376049305 -2.6318917146 -0.5967322581
H -3.4865309117 -0.5080722459 -1.5762257209
H -2.8286179309 1.9450863848 -1.1014057802
H -2.2160129150 1.3530815676 -2.6186385984
H -0.0118448544 1.1682254673 -1.8907333730
H -0.5273259976 2.6568181190 -1.1164123155
H 0.2079153880 -2.0323448672 1.6580660425
H -1.0422242281 -0.9568555373 2.2797261745
H 1.8400431626 -0.4307716793 2.4009249374
H 0.5693671641 0.6628838768 2.8774100408
H 1.6412118914 1.8239399027 0.9455265006
H 0.9466490883 -2.0317171635 -0.5724893832
H 0.4379944742 -0.8513595539 -1.7742707474
H 3.7338144096 -0.2272325243 0.8384306017
H 3.5508185650 -1.3539565341 -0.5136537369
H 2.6785601247 -1.6488381666 0.9872335690
H 2.6964455136 0.1636156318 -2.2753702127
H 3.4208820191 1.2366879015 -1.0715503835
H 1.8440859619 1.6231480408 -1.7438231562
H -1.0327503656 2.7443052368 1.2934816062
H -2.3202788175 1.5778739581 0.9598422252
H -1.2057742553 1.2909631584 2.2780206197
