44
CONF65
C -4.5180871787 1.6556750056 2.3734881352
N -3.3746350026 1.3779927723 1.4957863663
C -3.7296215106 1.5191488994 0.0653011992
C -4.5614541212 0.2507193517 -0.2740443394
C -4.0412866730 -0.8102038300 0.7302299211
C -2.9671749993 -0.0439411022 1.5535725455
C -1.5781181198 -0.1538773358 0.9111153900
C -1.6506643799 0.2720201186 -0.5522238875
C -2.4197397638 1.5731631807 -0.7322451636
O -0.2996835237 0.5014001001 -1.0733160540
C 0.4040821552 -0.5768982360 -1.4546646297
O -0.0266852495 -1.7122903473 -1.4677839882
C 1.8319046693 -0.1854700382 -1.8037390990
C 2.4096898806 -1.1107548663 -2.8658328080
O 1.6503196293 -0.9144590540 -4.0639675033
C 2.6616124675 -0.2098671906 -0.5318673389
C 3.3274796075 0.9412028169 -0.1051814136
C 4.1003763387 0.9225137936 1.0532808757
C 4.2136482557 -0.2481535197 1.7994397455
C 3.5491244180 -1.3993753577 1.3814743827
C 2.7763297745 -1.3811980986 0.2236691145
H -5.4045757648 1.0296012139 2.1758741063
H -4.2183646490 1.4977111530 3.4147558734
H -4.8123905293 2.7041728336 2.2592499377
H -4.2925330384 2.4446674997 -0.0916730335
H -5.6275633626 0.4423299622 -0.1261861227
H -4.4272771686 -0.0516080658 -1.3170243673
H -3.6161243632 -1.6882686561 0.2348532039
H -4.8453878059 -1.1628722716 1.3815495825
H -2.9180361232 -0.3782614197 2.5947162768
H -1.2045536490 -1.1804576285 0.9852094271
H -0.8846638949 0.5072419815 1.4437136786
H -2.0994314522 -0.5228766982 -1.1548746028
H -1.8149358931 2.4091494333 -0.3633274574
H -2.6256292336 1.7394819410 -1.7954068744
H 3.4663784591 -0.8508995307 -3.0202531378
H 2.3484902816 -2.1532966503 -2.5268671596
H 4.6132515752 1.8244849622 1.3728819927
H 4.8149528855 -0.2631975807 2.7030876248
H 3.6302439319 -2.3148346432 1.9594559429
H 2.2536674782 -2.2799447459 -0.0897321366
H 3.2394386145 1.8559399296 -0.6844870861
H 1.8212835746 0.8372113250 -2.1929825752
H 1.9613748040 -1.5506494748 -4.7192039644
