66
CONF5
C -5.1624191463 4.1183978025 1.0216665460
C -3.7298761791 4.2762835386 0.5507033467
O -2.9976883229 3.0357655404 0.6837485316
C -3.1336101235 2.1479549776 -0.3429047330
O -3.8351424004 2.3766425803 -1.3145254266
C -2.3466630579 0.9391058108 -0.0966196595
C -2.4566755462 -0.1154467610 -0.9522935230
N -1.8104195149 -1.2948413599 -0.6568006477
C -1.0959770450 -1.5295736778 0.4962315302
C -0.9604616419 -0.5313628879 1.4109176738
C -1.4310308922 0.8886066290 1.1231757355
C -0.2320958907 1.8447062251 1.0226241915
C -0.1753352589 2.9432185696 1.8801050642
C 0.9232786159 3.7918153207 1.9090910913
C 2.0126639642 3.5435927826 1.0771185744
C 1.9818869592 2.4534858778 0.2222867693
C 0.8701376416 1.5972838122 0.1753334340
C 0.8673037951 0.4725164922 -0.7540301069
C 1.9148269661 -0.3077378898 -1.0621562947
C 1.7334958783 -1.4392011199 -1.9871032373
O 0.6776953934 -1.7611967711 -2.5080668714
O 2.9072716737 -2.0881639089 -2.1529632808
C 2.9971419911 -3.2988870210 -2.9950967614
C 4.4676416138 -3.6805683658 -2.8667401159
C 2.1063374632 -4.3994111833 -2.4258954715
C 2.6527355428 -2.9585139412 -4.4412048796
C -0.2521528005 -0.7898590334 2.6649845222
O 0.3651451885 -1.8000193371 2.9598421278
O -0.3553367462 0.2778174911 3.5068536822
C 0.4698169341 0.2310865733 4.6940080556
C 1.8968299347 0.6268729011 4.3645838997
C -0.5279283264 -2.9113900154 0.5987002858
C -3.2443990273 -0.1513431027 -2.2268737968
H -5.6741130269 5.0854019397 0.9802935301
H -5.1922274664 3.7561882182 2.0533412122
H -5.7002556849 3.4159467003 0.3808724583
H -3.1777694328 4.9824991564 1.1774240760
H -3.6887512490 4.6044835800 -0.4917911883
H -1.7204367384 -1.9725669318 -1.3972814753
H -2.0070770058 1.2393588666 1.9845064290
H -1.0122471996 3.1190309097 2.5481482538
H 0.9338899384 4.6413908869 2.5849899947
H 2.8755761736 4.2015705153 1.0889593790
H 2.8109710175 2.2685254573 -0.4537481870
H -0.0687801534 0.2446308878 -1.2515455822
H 2.8909241877 -0.1843517998 -0.6043739833
H 4.6702666531 -4.5791224042 -3.4560847373
H 5.1068044648 -2.8718587965 -3.2314288364
H 4.7217447264 -3.8822804597 -1.8225471689
H 2.3152678085 -5.3357468946 -2.9527291465
H 1.0498877018 -4.1578142546 -2.5450805724
H 2.3232652747 -4.5500087493 -1.3637761634
H 1.5991215570 -2.7001826967 -4.5503879023
H 3.2644249098 -2.1201501069 -4.7879404657
H 2.8718226485 -3.8250376736 -5.0731245295
H 0.4209927067 -0.7710884270 5.1301901225
H 0.0027820623 0.9481930310 5.3743731361
H 2.4886593501 0.6843158114 5.2838429075
H 2.3560646029 -0.1125466507 3.7039835301
H 1.9170553195 1.6030663419 3.8709268526
H -0.8150915690 -3.5113384194 -0.2695324977
H -0.8632177118 -3.4082529264 1.5111108642
H 0.5625363654 -2.8670121393 0.6581494403
H -2.9423037284 0.6575263125 -2.8940845662
H -3.1084407874 -1.1104610101 -2.7349547411
H -4.3083446414 0.0000570556 -2.0293997039
