54
CONF342
C -1.9672242074 -3.6173729528 2.4151975055
C -1.6264369633 -2.8924176173 1.1118296605
C -0.1925391660 -3.2061097658 0.6802197994
C -1.8373998737 -1.3725319321 1.2643528155
C -1.3982874875 -0.6484817894 -0.0188486108
O -2.0540866830 -0.7394998024 -1.0578158749
N -0.2553965057 0.0663632466 0.0773066933
C 0.3866321104 0.6610954328 -1.0949855014
C 1.2139705331 1.8657144275 -0.6417794142
C 1.7973413214 2.6163111779 -1.8123513055
O 1.3100898968 2.6594651557 -2.9231193138
O 2.9184053810 3.2680936806 -1.4602323580
C 3.5204706662 4.0829981604 -2.4990589453
C 1.2137162455 -0.3689923087 -1.8443858868
C 2.3094108161 -0.9846761653 -1.2349863797
C 3.0517082267 -1.9509322166 -1.9045303614
C 2.6825946742 -2.2960901312 -3.1998002526
C 1.5993749071 -1.7023519174 -3.8334979316
C 0.8697345160 -0.7376075394 -3.1435589595
Cl 3.6136767508 -3.5217575339 -4.0568555861
N -3.2392845415 -1.0948484242 1.5347050260
C -3.6327220596 0.1647852232 1.8675734807
O -2.8673856299 1.0703337512 2.1722793929
O -4.9838521663 0.2615413958 1.8530511890
C -5.5511621529 1.5812923728 2.1509298723
C -5.5081992811 2.4386344765 0.8991816682
C -6.9594793784 1.3182666283 2.6437988215
H -1.2903011537 -3.2962379730 3.2154928038
H -2.9935719608 -3.4239056009 2.7379800124
H -1.8489710727 -4.6974227967 2.2846346631
H -2.3080502587 -3.2330570666 0.3191173958
H -0.0481167809 -4.2892628806 0.6299643027
H 0.0422309098 -2.7903142619 -0.3044146594
H -1.2444491040 -1.0160301110 2.1160160546
H 0.2569963930 0.0453306481 0.9475686999
H -0.4101773401 1.0083834505 -1.7578146332
H 0.5663261645 2.5685549447 -0.1007691646
H 2.0133452433 1.5721718391 0.0451890619
H 3.8093515683 3.4569184714 -3.3463188906
H 4.3972694832 4.5350757660 -2.0377586734
H 2.8172330469 4.8514856113 -2.8280431625
H 2.5901675286 -0.7234799561 -0.2183746129
H 3.9000373328 -2.4280810116 -1.4271391620
H 1.3266350481 -1.9864253325 -4.8435061518
H 0.0182431550 -0.2685080324 -3.6270816474
H -4.9439260557 2.0299560642 2.9430128241
H -5.9277729004 3.4257109643 1.1166247708
H -6.1018008914 1.9772102651 0.1032774617
H -4.4811248405 2.5696776512 0.5491534159
H -7.4379821796 2.2684031919 2.8978573030
H -6.9500945011 0.6844869959 3.5346720905
H -7.5539693541 0.8292821764 1.8655363936
H 0.5280021064 -2.8024850681 1.4018239949
H -3.9268354136 -1.6892379793 1.0933647309
