85
CONF128
C 5.3094688954 2.9664442228 -3.2597598597
C 5.2078659558 1.4454439237 -3.1634984708
C 4.7760756765 0.9215821975 -1.7976816880
C 5.6276984469 1.3885360532 -0.6143972662
C 4.9925631945 0.8759121809 0.6815052626
C 3.5365783189 1.3197363944 0.7722339245
C 2.7576125928 0.8846400625 -0.4769357239
O 3.4020986772 1.3503998630 -1.6350451917
C 1.3411560198 1.4556811363 -0.5381088937
C 0.4212967909 0.7792465903 0.4631781794
C 0.4447359705 -0.7271597461 0.2772220924
C 1.8917364866 -1.2108592721 0.3803280892
O 2.7118683867 -0.5483674783 -0.5884384758
C 2.0366231646 -2.7138767672 0.1246900806
C 1.6813402507 -3.5376673718 1.3249643131
C 0.6145910506 -4.3251076078 1.5211179190
C -0.5000310661 -4.4985431888 0.5269752955
C -1.8892219536 -4.0384450574 1.0826374587
C -2.5776460161 -3.1537026439 0.0938446269
C -3.0037286741 -1.9066789676 0.3512854318
C -3.6477331051 -1.0862317380 -0.6450983065
C -4.1501375404 0.1545839784 -0.5372000472
C -4.8303756137 0.8519626964 -1.6728190777
O -5.8988109021 1.5982734549 -1.0718157358
C -5.5669182591 1.8901798298 0.2912221980
C -4.3132452158 1.0513691691 0.6836934039
C -3.0869888455 2.0175791508 0.9083658343
C -3.0348513625 3.1027371062 -0.1252390164
C -4.1401865282 3.8118326254 -0.3647507746
C -5.3862544095 3.4107093462 0.3905416817
O -5.2525976685 3.8476697380 1.7546813576
C -4.2355464031 4.9357746528 -1.3419981622
C -1.8299032344 1.2231620732 1.1561503148
O -1.6895609661 0.5390702098 2.1571948852
O -0.8991778819 1.3619349509 0.2063447010
O -4.6007027452 0.3582833182 1.8882313962
C -2.7774962274 -5.2404120947 1.4376480229
C 0.4749607292 -5.1123261710 2.7955327964
C 7.0769480251 0.9267852519 -0.7451214753
H 4.3786316204 3.4378481372 -2.9324748830
H 6.1250059303 3.3600390717 -2.6448795481
H 5.5005356013 3.2737506112 -4.2921137574
H 4.4771989722 1.0768716805 -3.8922099449
H 6.1664765131 0.9822919352 -3.4238686349
H 4.7921577846 -0.1788491606 -1.8229155490
H 5.5974674442 2.4871934355 -0.5907169364
H 5.0494422059 -0.2210310716 0.7038273658
H 5.5543890141 1.2458241186 1.5474772381
H 3.4827405289 2.4142130108 0.8221385999
H 3.0647944079 0.9370858392 1.6829151420
H 0.9616085509 1.2739308030 -1.5489636577
H 1.3724067645 2.5365122250 -0.3712806317
H 0.6839204292 1.0314810499 1.4979194799
H 0.0499801379 -0.9789719103 -0.7150891070
H -0.1681310192 -1.2249057099 1.0327286851
H 2.2697438831 -0.9994416836 1.3955344734
H 1.4576376123 -2.9835859643 -0.7631361288
H 3.0917255873 -2.8878669910 -0.1213454473
H 2.4102004098 -3.4834918496 2.1348870360
H -0.5700391058 -5.5587409604 0.2444680648
H -0.2779095126 -3.9446750228 -0.3876653336
H -1.7194043713 -3.4471533924 1.9916206305
H -2.7341301713 -3.5743768147 -0.9024025780
H -2.8415686699 -1.4997909276 1.3439617358
H -3.7369194033 -1.5557210675 -1.6265610895
H -4.1464868974 1.5372523953 -2.2007622553
H -5.2635374777 0.1563235571 -2.3989224011
H -6.3979655105 1.5623555829 0.9323327742
H -3.3111809029 2.4791489116 1.8787945223
H -2.1001232268 3.3092738315 -0.6361481906
H -6.2699854420 3.8761058649 -0.0709042361
H -6.0003746110 3.4939658955 2.2522253373
H -3.2743573835 5.1357405175 -1.8220980974
H -4.5738463044 5.8517146731 -0.8421073939
H -4.9753258824 4.7064317417 -2.1192806283
H -3.7597402944 0.2060887020 2.3469817105
H -3.7169533040 -4.9103633898 1.8900376618
H -3.0180243845 -5.8132473184 0.5350504883
H -2.2702570131 -5.9131802057 2.1362983049
H 0.3997451840 -6.1854200798 2.5782796789
H -0.4345468494 -4.8384577952 3.3431102299
H 1.3285718562 -4.9546405882 3.4589110499
H 7.1281726363 -0.1613568856 -0.8706842032
H 7.6445621945 1.1846168045 0.1549251930
H 7.5795879304 1.3890582428 -1.5995755787
