52
CONF1
C 1.2879689486 0.5609664468 -1.6806979664
C 1.5776604747 0.1751652811 -0.2235875861
C 1.1267909822 1.2579507619 0.7725501751
C -0.2526952316 1.0014831431 1.3665766966
O -0.5465748637 1.4073824992 2.4777812268
C -1.1859101198 0.2363371024 0.4517647600
C -0.6136735476 -1.1908062716 0.2054860952
C 0.9306806709 -1.1643691441 0.1972634769
C 1.6926634678 -2.2253379118 -0.5961007537
C 3.1421038963 -1.6779187244 -0.6551710761
C 3.1100831455 -0.2386184917 -0.0852421099
C 4.0181910914 0.7318896480 -0.8231652914
O 4.2843745069 0.6156502605 -2.0087137278
C 4.5625446627 1.9161632984 -0.0572451281
O 5.2623327543 2.8035978408 -0.9059953177
O 3.5550428304 -0.1872006850 1.2750333951
C -1.3191146299 -1.8063994241 -1.0001194802
C -2.8391073438 -1.8434040219 -0.7416826767
C -3.3649204102 -0.4871154481 -0.3792257859
C -4.3283964725 0.1062495182 -1.1128798300
C -4.8100927347 1.4560537661 -0.8507833609
O -5.7120996179 1.9722333352 -1.5298009318
C -4.1643925227 2.1796787157 0.2445602707
C -3.2035510616 1.6111024469 0.9855819378
C -2.7120041789 0.2086566079 0.7964325039
C -3.0295838936 -0.5553882881 2.1095309707
H 1.7586249218 1.5190335004 -1.9206053497
H 0.2187294392 0.6722393226 -1.8628013952
H 1.6667516034 -0.1838620610 -2.3843705822
H 1.8239858185 1.3420027026 1.6107531116
H 1.0714916392 2.2440237628 0.2887393282
H -1.1167199584 0.7733032645 -0.5043468901
H -0.8895756455 -1.8026319998 1.0723684461
H 1.2109322441 -1.2864910689 1.2554040779
H 1.2815372825 -2.3247790024 -1.6044317671
H 1.6400868989 -3.2091874108 -0.1223196932
H 3.8381979644 -2.2713405316 -0.0557081252
H 3.5222500700 -1.6653473961 -1.6784748415
H 3.7231699901 2.4275787820 0.4389246301
H 5.2164875701 1.5388909191 0.7418127542
H 5.2471776299 2.3926550734 -1.7877288583
H 3.1754648523 -0.9330362313 1.7560284676
H -0.9653902920 -2.8290156000 -1.1653569568
H -1.1143381958 -1.2328770553 -1.9120651468
H -3.0307877591 -2.5455979930 0.0808362943
H -3.3686629553 -2.2195414181 -1.6212133707
H -4.7740660902 -0.4125209128 -1.9585879248
H -4.5043905727 3.1936325092 0.4370015777
H -2.7537042274 2.1588826117 1.8084782973
H -2.6800267134 -1.5879801912 2.0702420789
H -4.1120985747 -0.5671593386 2.2652155756
H -2.5534478332 -0.0548767847 2.9540725635
