47
CONF49
C -3.9309306272 -1.1485664682 0.4414344785
C -2.4412700902 -1.3970692571 0.5107901342
C -1.8906913499 -2.4523373670 1.4408838109
C -1.7582991921 -0.9741616679 1.8139929691
C -0.4200890233 -0.3676165754 1.7976510986
O 0.5759013220 -0.7996175522 1.2571908679
O -0.4391952901 0.8172362227 2.4858963811
C 0.8056045422 1.5732059542 2.4399221810
C 0.8266398842 2.3673399844 3.6662823286
N 0.8643491942 3.0101791429 4.6245200444
C 0.8604274727 2.4317030163 1.1963984056
C 1.6813929359 2.0315659604 0.1457719543
C 1.6721660670 2.7694581161 -1.0352713355
C 0.8805764646 3.9066230331 -1.1638656659
C 0.0783904557 4.3026763226 -0.0975005712
C 0.0555512826 3.5666008035 1.0819869137
O 2.4907553625 2.4481319446 -2.0982267519
C 2.6977659409 1.1092973339 -2.4013627522
C 1.6551342286 0.1853143126 -2.3832154178
C 1.9134210398 -1.1287818064 -2.7619665927
C 3.1917802410 -1.5129691939 -3.1643804790
C 4.2187897848 -0.5716211170 -3.1874609794
C 3.9786258601 0.7448229427 -2.8016809885
C -2.7509454291 -3.3050996410 2.2636916860
C -2.5303462391 -4.5938133550 2.5251819793
Cl -3.6102495325 -5.5408419912 3.5170079259
Cl -1.1646640206 -5.4948824463 1.9247583068
C -1.7301555951 -1.2016429238 -0.8082128483
H -4.4150358331 -1.2028995838 1.4184466925
H -4.3994107956 -1.8849509438 -0.2207889510
H -4.1170305633 -0.1523925980 0.0270917767
H -0.9598869879 -2.8972478616 1.1029658828
H -2.4264771674 -0.5933394869 2.5788403203
H 1.6532187726 0.8792274506 2.4637753347
H 2.3058729024 1.1504083241 0.2408815275
H 0.8991674849 4.4665086674 -2.0928939854
H -0.5401264904 5.1888251061 -0.1946193963
H -0.5829102244 3.8712273996 1.9054838731
H 0.6589609230 0.4891203218 -2.0790700377
H 1.1044076639 -1.8527746101 -2.7502995830
H 3.3846082410 -2.5387683780 -3.4605052403
H 5.2170507825 -0.8609355040 -3.5006470499
H 4.7682836044 1.4888533836 -2.8088840605
H -3.6408727775 -2.8693131963 2.7077354394
H -0.6679151819 -1.4412163854 -0.7432829896
H -1.8357500511 -0.1640552855 -1.1450547094
H -2.1865884886 -1.8514098595 -1.5623452378
