51
CONF6
C 1.4684649637 1.8846061677 1.2682715623
C 0.1142668387 1.5266324199 0.7298286905
C -0.9905380760 1.6126406167 1.4850801489
C -2.3605363092 1.3094371285 1.0055849041
C -2.9030428840 -0.1479856623 0.9438243435
C -3.4657379144 0.8835388367 1.9174794556
C -3.2226043260 0.7552575667 3.4037586933
C -4.8623473182 1.3637510054 1.5782658827
C -2.0013986010 -1.2423610263 1.3255340631
O -1.2639466538 -1.2908792279 2.2924711265
O -2.0599835247 -2.2370351716 0.3936206955
C -1.0727275243 -3.3056266229 0.5509147421
C 0.2501659204 -2.8841403796 0.0159440189
C 1.3097330634 -2.4169242668 0.7308752467
O 2.3418268034 -2.0983548441 -0.1062583287
C 1.9255083351 -2.3653937296 -1.3896383704
C 0.6533896649 -2.8459777595 -1.3618405040
C 2.8837841696 -2.0367061549 -2.4794786753
C 3.0103063322 -0.5392284863 -2.6855543160
C 3.8741836327 0.2172137869 -1.8899777172
C 3.9494251758 1.5994751076 -2.0426087847
C 3.1649736070 2.2420830443 -2.9983483160
C 2.3060351311 1.4935091984 -3.8000823788
C 2.2279464830 0.1121826144 -3.6413520571
C 0.1046429006 1.0371683763 -0.6868019720
H 1.4198849763 2.2155295034 2.3090136273
H 1.9260642209 2.6807649075 0.6668207483
H 2.1455219504 1.0220586685 1.2050044445
H -0.8885177855 1.9423570301 2.5175440113
H -2.6786155680 1.8739951707 0.1300651196
H -3.5185179261 -0.3672702527 0.0778376576
H -3.3703101298 1.7315602073 3.8797012814
H -3.9439793326 0.0560944654 3.8407783360
H -2.2202427002 0.3977550660 3.6338295139
H -5.6137301237 0.6680359202 1.9678964280
H -5.0405299374 2.3457421530 2.0310811048
H -5.0034375499 1.4548387070 0.4973094530
H -1.0083928358 -3.5853169236 1.6044471003
H -1.4867366346 -4.1335073534 -0.0273141668
H 1.4803432698 -2.2573665875 1.7842126731
H 0.0657240657 -3.1406172576 -2.2196176492
H 2.5227192105 -2.5114197228 -3.3957385326
H 3.8657952639 -2.4638954411 -2.2442936882
H 4.4908038849 -0.2800560659 -1.1462923352
H 4.6243771415 2.1751265002 -1.4163202194
H 3.2247756892 3.3192405302 -3.1191676224
H 1.6935366247 1.9857139319 -4.5496371048
H 1.5512672494 -0.4673529801 -4.2641516577
H 0.5673380743 1.7733963238 -1.3559136093
H -0.8995727773 0.8109574455 -1.0512845616
H 0.7126427844 0.1267530982 -0.7736159087
