39
CONF183
C 3.3313982743 0.9869255319 -3.4981369172
C 2.4959605642 0.0232010417 -2.6579128853
C 2.9969292432 -0.0701346562 -1.2178063356
C 2.1900082615 -1.0382454421 -0.3528563090
N 0.7896323367 -0.6393840661 -0.2022261775
C 0.4066370183 0.2308087812 0.7404343285
O 1.1419555539 0.8466943462 1.4981870940
N -1.0205491082 0.4517149247 0.7906748512
C -1.6049484087 1.7187557290 0.8474276671
C -1.0624815098 2.9937470063 0.9442499754
C -1.9657065296 4.0546249823 0.9322903037
C -3.3494750495 3.8435960179 0.8300200621
C -3.8817264566 2.5624024757 0.7292580988
C -2.9925187000 1.4885472344 0.7371790132
N -3.2534533466 0.1259839325 0.6642209306
C -2.0748212279 -0.4452579357 0.6952584655
N -1.8887690901 -1.8167771350 0.6203339919
C -1.0772071000 -2.5188607410 1.4949376624
O -0.3578783708 -2.0127071366 2.3338601066
O -1.1971413125 -3.8341110103 1.2564988482
C -0.3913784905 -4.6852290516 2.1119082482
H 4.3795495329 0.6694613527 -3.5302148059
H 3.3015475549 1.9975195217 -3.0759642057
H 2.9637266398 1.0409782005 -4.5275138167
H 2.5133609753 -0.9770883301 -3.1109689145
H 1.4483877973 0.3500653986 -2.6605194783
H 4.0403021657 -0.4111853341 -1.2126030883
H 2.9851875890 0.9237128922 -0.7524682031
H 2.6269989375 -1.1118989593 0.6476854744
H 2.1915003500 -2.0381598994 -0.7993010303
H 0.1069362085 -0.9969951519 -0.8534350050
H 0.0050546301 3.1574002952 1.0265034347
H -1.5868704132 5.0688817609 1.0058140911
H -4.0165411019 4.6997274317 0.8287381683
H -4.9508680028 2.3962820679 0.6456900846
H -2.6230747628 -2.3320172952 0.1519412961
H -0.6079840256 -5.7006793777 1.7840524189
H -0.6793161492 -4.5481058205 3.1564646225
H 0.6676373437 -4.4541950959 1.9782983470
