50
CONF194
C -1.4902901142 -0.1829312767 -2.1716010240
C -2.0081213493 -1.5817627759 -1.9345775391
C -1.2175001669 -2.7893195922 -2.3926618114
C -1.3591562560 -2.4829628837 -0.8879115183
C -0.2250609382 -2.0174707897 -0.0770292202
O 0.7701443741 -1.4286603107 -0.4416766221
O -0.4511472676 -2.3333334333 1.2378983291
C 0.5498823237 -1.8230909174 2.1561059425
C 0.3986235713 -2.6184189099 3.3744202056
N 0.3005496140 -3.2174120067 4.3565105995
C 0.3520107601 -0.3480804121 2.4375998598
C 1.4166545449 0.5270938428 2.2566720053
C 1.2284894743 1.8847897601 2.5025200266
C -0.0084433685 2.3710787505 2.9212239103
C -1.0642683425 1.4795247624 3.0904736171
C -0.8941997577 0.1195114357 2.8561682196
O 2.3399496348 2.6875203707 2.3684813490
C 2.1742242674 4.0118032977 1.9832700792
C 2.8835986962 4.9732316441 2.6930513800
C 2.8108469980 6.3038729114 2.2878269626
C 2.0319197561 6.6649813214 1.1911676602
C 1.3286002074 5.6860089822 0.4903804410
C 1.3982813032 4.3514237857 0.8779943679
C 0.0664865779 -2.6450904727 -3.0776786286
C 0.5089949450 -3.4324469107 -4.0632579849
C -0.2609519189 -4.6171015809 -4.6006596908
F 0.3636334930 -5.2485838496 -5.6073840718
F -1.4828141585 -4.2409628060 -5.0627672536
F -0.4856365332 -5.5407165280 -3.6290694816
Cl 2.0576535556 -3.1329375679 -4.8204440778
C -3.5131531877 -1.6978630556 -2.0348459725
H -0.4109073804 -0.0923955113 -2.0549416400
H -1.7598574951 0.1334227130 -3.1846493383
H -1.9664433616 0.5044916791 -1.4644877817
H -1.8272319663 -3.6373300197 -2.6831807427
H -2.0369120318 -3.1420172862 -0.3568155876
H 1.5517725080 -2.0008220874 1.7489090234
H 2.3847373408 0.1729512878 1.9178581776
H -0.1433704231 3.4293921727 3.1152583773
H -2.0273463998 1.8542138943 3.4215005543
H -1.7203589498 -0.5705852437 2.9943109954
H 3.4822110568 4.6734599588 3.5467934659
H 3.3629570055 7.0596599200 2.8374986833
H 1.9751089411 7.7030232127 0.8807820250
H 0.7276899634 5.9587793399 -0.3714741406
H 0.8620843443 3.5824199634 0.3313544515
H 0.7108171955 -1.8307297687 -2.7679168430
H -3.8430691335 -1.3875769930 -3.0320407554
H -3.8510927983 -2.7230495521 -1.8616239082
H -3.9905892488 -1.0440020650 -1.2973350694
