55
CONF30
C 2.6148199253 -0.4906299827 -1.9645933868
C 3.7808536250 0.4169535065 -2.3314429439
N 3.4404820003 1.8125830469 -2.0485373037
C 3.1214269819 1.9595025011 -0.6246959418
C 1.9593764576 1.0525877428 -0.2484327655
N 2.2947993768 -0.3372954463 -0.5490016709
C 1.3201858846 -1.2973254623 -0.0523667434
C -0.0958963483 -1.2415902207 -0.6943701206
C -1.0393806548 -2.1865623238 -0.0350095682
C -2.0741440700 -1.8980382120 0.7832526076
C -2.9481034701 -2.9756554873 1.2861319854
C -2.4281886075 -4.1961824646 1.7330696589
C -3.2622006458 -5.2315749921 2.1317674198
C -4.6441612815 -5.0572730562 2.1127980162
C -5.1842558183 -3.8418968769 1.7140055281
C -4.3410852279 -2.8071251675 1.3074317841
S -5.0894324974 -1.2911397818 0.7582493590
C -3.8101968177 -0.1376284504 1.1624288677
C -2.4589952684 -0.5273720533 1.1693532484
C -1.5100072510 0.4184907257 1.5648625186
C -1.8753771011 1.7270521682 1.8563784359
C -3.2111630587 2.1178703960 1.7784093052
C -4.1767426901 1.1786756831 1.4528959541
C -0.8134567568 2.7248998403 2.2051390463
F 0.2181495903 2.1561164232 2.8775446528
F -1.2860666971 3.7332255838 2.9702609954
F -0.2748670867 3.2982320493 1.0926296515
C 4.4974007291 2.7358164918 -2.4752202964
C 3.9276563810 4.1340607699 -2.6891833602
O 2.8357873477 4.1003928810 -3.5984729560
H 2.8916236916 -1.5354538304 -2.1546187628
H 1.7592907550 -0.2397049541 -2.6220327070
H 4.6798135104 0.0961824510 -1.7691010163
H 3.9943746238 0.3174161951 -3.4020807083
H 3.9980711541 1.7115957260 0.0054746614
H 2.8396606804 2.9976667537 -0.4193289271
H 1.7655290635 1.1469243691 0.8269166537
H 1.0570483300 1.4009437902 -0.7863656062
H 1.7290475266 -2.3069554006 -0.1944267748
H 1.2262018319 -1.1501529559 1.0318441670
H -0.0062709972 -1.5225170649 -1.7510954254
H -0.4809794297 -0.2187599327 -0.6608050768
H -0.8920473836 -3.2392336309 -0.2737161335
H -1.3503353089 -4.3192201619 1.7700786037
H -2.8350443420 -6.1697787026 2.4695526837
H -5.3028440198 -5.8583393418 2.4310428746
H -6.2586800429 -3.6888160551 1.7243589213
H -0.4736329790 0.1180891855 1.6573210493
H -3.4986578841 3.1374864529 2.0073378066
H -5.2245473711 1.4598377348 1.4402827320
H 4.8903810374 2.3767568303 -3.4340435689
H 5.3403321021 2.7701384524 -1.7576622048
H 3.6257704880 4.5852038883 -1.7295890789
H 4.6993690196 4.7795109429 -3.1229011124
H 2.3393085967 3.3020094693 -3.3604302194
