46
CONF45
C -3.8194069566 -0.8178708827 -2.2578042209
C -3.7400822495 -0.3077609077 -0.8373313690
C -2.6298481599 -0.7542060051 0.0856463434
C -2.6973326650 0.7131718942 -0.4191347028
C -1.6395547857 1.2213450207 -1.3115275444
O -1.1393804474 0.6411875992 -2.2584152456
O -1.2582702996 2.4596296589 -0.9084964745
C -0.0982878587 3.0476201869 -1.5826378122
C 1.1450057691 2.7175855539 -0.8066632798
C 1.7053020104 1.4381146755 -0.8899440263
C 2.8088357870 1.1268292613 -0.1117201661
C 3.3904524327 2.0621162327 0.7394214935
C 2.8376442397 3.3360903432 0.8097829264
C 1.7169785530 3.6617129614 0.0470539806
O 3.3726456905 -0.1374330326 -0.2444517806
C 3.2216347171 -1.0262001189 0.8021391793
C 2.3035642208 -0.8399969606 1.8345580499
C 2.2048663601 -1.8083517689 2.8323591465
C 3.0010385283 -2.9496517596 2.8018871005
C 3.9081770292 -3.1230723526 1.7562628838
C 4.0256970871 -2.1651072292 0.7560129062
C -1.5582109533 -1.6439505636 -0.3581660686
C -0.9647842885 -2.5675402746 0.3992275649
Cl 0.3001845706 -3.5998382119 -0.2201225852
Cl -1.3637788505 -2.8814094631 2.0670741855
C -5.0973974314 -0.1243034885 -0.1906346394
H -4.3970573651 -0.1144437906 -2.8669112591
H -2.8447987219 -0.9476026973 -2.7244981079
H -4.3456432732 -1.7784911967 -2.2623384545
H -2.9038176523 -0.8425580400 1.1320676182
H -3.0067619075 1.4226138441 0.3405543554
H -0.2906721599 4.1212350035 -1.5808174059
H -0.0542698052 2.6745796424 -2.6079489987
H 1.2812084106 0.6840227368 -1.5441679040
H 4.2576988176 1.7882245885 1.3316902680
H 3.2821925097 4.0788821183 1.4643958647
H 1.2845392251 4.6555584241 0.1141886514
H 1.6725007010 0.0413289560 1.8609847127
H 1.4898979927 -1.6646927615 3.6364029256
H 2.9153645976 -3.6983133495 3.5823902063
H 4.5343998812 -4.0092245832 1.7188437842
H 4.7293187357 -2.2859388996 -0.0612505604
H -1.2031279722 -1.5595960700 -1.3791349476
H -5.6372121236 -1.0772783765 -0.1810107745
H -5.6911011907 0.5993987058 -0.7596431423
H -5.0083494632 0.2335853824 0.8388509256
