44
CONF118
C -4.1116762775 0.6202224519 -3.5129394481
S -3.3672512083 -0.9046289594 -2.8745588366
O -2.9588723233 -1.7067587487 -4.0377524654
O -4.2692801706 -1.4773834343 -1.8594732825
C -1.8358551580 -0.3188411921 -2.0637241828
C -1.8396762700 0.3797215002 -0.8470529371
C -0.5849723979 0.7766540257 -0.3567213659
C 0.6049140463 0.4771860065 -1.0217642752
C 0.5522883486 -0.2048835019 -2.2365412137
C -0.6649452783 -0.6071029214 -2.7589586215
C 1.9652859345 0.8663129681 -0.5196018036
O 2.7250451808 1.4791614726 -1.2443949086
C 2.3772948574 0.3094352684 0.8393283987
C 2.9787449411 1.3933461884 1.7576746284
O 2.3880766393 1.7327061898 2.7547414091
C 4.3410478665 1.8942257315 1.3613719764
C 5.3077805317 0.7053775744 1.2324298205
C 4.8077456093 -0.3280070992 0.2122573099
C 3.4189959495 -0.8047963509 0.5490942831
O 3.0866488614 -1.9632911367 0.6169087951
Cl -0.4839031380 1.7557121030 1.0842953078
C -3.0809066748 0.6955764136 -0.0335166693
O -3.0622333997 0.0322804366 1.2266497161
C -3.2428452160 -1.3684803326 1.1351656552
C -2.9539663725 -1.9426771142 2.5069279281
F -3.1221267051 -3.2861969804 2.4752530790
F -3.7798947927 -1.4482348880 3.4510140099
F -1.6878170225 -1.6955680953 2.9009087291
H -4.3478772037 1.2940755554 -2.6870751352
H -3.4101747136 1.0787385077 -4.2126927160
H -5.0248249971 0.3101253316 -4.0282291391
H 1.4769627366 -0.4173572081 -2.7619802452
H -0.7192347737 -1.1519355915 -3.6938939162
H 1.5263072150 -0.1514693039 1.3411910254
H 4.2599821415 2.3955671943 0.3888943536
H 4.6781307666 2.6098870237 2.1140433025
H 5.4348713210 0.2270421134 2.2107936173
H 6.2904547892 1.0709579416 0.9219301909
H 5.4626715628 -1.2003746322 0.1578836591
H 4.7666036316 0.1450517705 -0.7780662275
H -3.0938826500 1.7630285496 0.2056707770
H -3.9922334735 0.4398846282 -0.5801840597
H -4.2683567120 -1.6362523748 0.8477874274
H -2.5470449118 -1.8380365780 0.4253833462
