46
CONF50
C -2.7498967458 1.7764104554 -0.0032293802
C -1.6816036842 0.7158341248 0.2192367346
C -1.6178616353 -0.2450958085 -0.9695918711
O -1.3160211191 -0.0005437312 -2.1141435303
N -1.9844883052 -1.4787947996 -0.4596259413
C -2.2977828939 -1.4180035858 0.9049650998
O -2.6643785287 -2.3210650559 1.6087728728
O -2.1258024490 -0.1472831150 1.3197498897
N -2.0754757878 -2.6492997188 -1.1816720972
C -3.1234695196 -2.7358649449 -2.1283032832
C -4.3075076166 -2.0088326820 -1.9865847418
C -5.3343593072 -2.1841265732 -2.9109369311
C -5.1984314598 -3.0781267853 -3.9696472836
C -4.0135665107 -3.8020288156 -4.1003531079
C -2.9773227545 -3.6349027774 -3.1899373142
C -0.3019387012 1.2611287454 0.5260904801
C 0.2384692336 2.2625504004 -0.2874936615
C 1.5159237911 2.7507807917 -0.0538605692
C 2.2647699214 2.2418501226 1.0052303496
C 1.7424725385 1.2462050009 1.8268427598
C 0.4653142832 0.7553968189 1.5763227168
O 3.4946869476 2.8240759604 1.2207543484
C 4.4932019349 2.0870267177 1.8450449838
C 5.1673753291 2.6910687583 2.8994581295
C 6.2308671959 2.0180117221 3.4969492922
C 6.6069707796 0.7544632633 3.0470056629
C 5.9195390508 0.1649168813 1.9865832278
C 4.8605145327 0.8287552885 1.3747186408
H -2.4957317562 2.3845520914 -0.8731412440
H -3.7174170871 1.2988161793 -0.1798330404
H -2.8092729295 2.4177391385 0.8791661285
H -1.1671730964 -2.9321722273 -1.5345153600
H -4.4362078047 -1.3102907040 -1.1662306415
H -6.2498009852 -1.6121615462 -2.7950234561
H -6.0031841297 -3.2080361280 -4.6853923041
H -3.8887664558 -4.4998029947 -4.9226845210
H -2.0533226385 -4.1962602584 -3.2976155413
H -0.3294573845 2.6625992160 -1.1197118105
H 1.9390857094 3.5267458803 -0.6827518971
H 2.3208177167 0.8567835032 2.6571855820
H 0.0669380164 -0.0185372783 2.2216363748
H 4.8583355747 3.6742615566 3.2387401584
H 6.7623570612 2.4842735521 4.3205913541
H 7.4336154495 0.2319494257 3.5169893926
H 6.2129408012 -0.8155228993 1.6245274360
H 4.3260432121 0.3805571310 0.5433182168
