27
CONF4
C 1.7193486104 -1.8874270252 -0.8649698724
Si 1.5442416517 -0.2285134822 -0.0101092027
C 2.8165528642 -0.0643352127 1.3524053202
C 1.7338414313 1.1608098546 -1.2551142796
O 0.0533979747 -0.1392798541 0.7133945457
Si -1.5183547671 0.1635990442 0.2762972193
C -1.9183936312 -0.7308701158 -1.3226858167
C -2.5980974347 -0.4699157078 1.6673308196
C -1.7595599144 2.0097464466 0.0585404891
H 2.7265677077 -2.0010494097 -1.2824756711
H 1.5505946417 -2.7098557411 -0.1605775173
H 1.0009821334 -1.9895460399 -1.6858953860
H 2.7141431447 0.8958838466 1.8702831625
H 2.7031259843 -0.8644516231 2.0926082248
H 3.8320997592 -0.1227827032 0.9448094351
H 2.7206067896 1.1164594101 -1.7305267803
H 0.9769598865 1.0917314917 -2.0447362968
H 1.6340596952 2.1393465334 -0.7720667923
H -2.9616311722 -0.5556820374 -1.6101523607
H -1.2811147051 -0.3817268439 -2.1432399170
H -1.7733571145 -1.8117709370 -1.2155448403
H -3.6568773711 -0.2908377002 1.4486241028
H -2.3578463387 0.0346969709 2.6099440996
H -2.4596788960 -1.5471843397 1.8122503569
H -1.4688063627 2.5522044693 0.9652804402
H -2.8116178888 2.2372805165 -0.1492177218
H -1.1611867679 2.3934697711 -0.7750791570
