40
CONF15
C -2.0662596609 -2.0167741244 2.3815529757
C -0.6766254623 -1.8841181027 1.7483586679
C 0.1417291772 -3.1407823213 2.0869286648
C -0.7158978973 -1.7295965382 0.2215542721
C 0.4250737826 -1.2786182943 -0.4529765877
C 0.4389368005 -1.1542642772 -1.8377449433
C -0.6927815647 -1.4825800092 -2.5826154765
C -1.8295191800 -1.9405034912 -1.9245955743
C -1.8398656516 -2.0641537740 -0.5350146180
N 0.0430616038 -0.7464522234 2.3599532378
C -0.2786111428 0.5540008238 2.0511486049
O -1.3468900037 0.8786443214 1.5269429352
N 0.6642476273 1.4949473111 2.4244648047
C 0.6166437714 2.8094593988 1.7830326745
C 0.8919908398 2.7550021364 0.2956078849
C -0.1374569198 2.9864352581 -0.6216146264
C 0.0751162996 2.9049364350 -1.9936866882
C 1.3389508944 2.5857742713 -2.4813217249
C 2.3877741314 2.3535985828 -1.5964717314
C 2.1469955125 2.4419801385 -0.2310282483
Cl 3.5063141464 2.1451632654 0.8624861246
H -2.5479232864 -2.9440281896 2.0601113215
H -2.7040458911 -1.1708700235 2.1201684177
H -1.9545938402 -2.0534633664 3.4687313162
H -0.3434817377 -4.0180859960 1.6521924526
H 1.1552659883 -3.0720783798 1.6781305197
H 0.2013515131 -3.2735873576 3.1725232077
H 1.3125153268 -1.0054926852 0.1115632104
H 1.3336902236 -0.7928876689 -2.3359968364
H -0.6869293145 -1.3805028946 -3.6633823476
H -2.7197303607 -2.1982097425 -2.4907451558
H -2.7432850146 -2.4136500771 -0.0484656411
H 1.0065458503 -0.9308680670 2.6011817479
H 1.5925435416 1.1585176120 2.6377759629
H 1.3508035679 3.4457764367 2.2860191880
H -0.3722046608 3.2450406675 1.9430620260
H -1.1240272906 3.2240512998 -0.2365432611
H -0.7457224994 3.0851478742 -2.6800578176
H 1.5170272361 2.5141432510 -3.5494125918
H 3.3792726344 2.1089492187 -1.9607707265
