41
CONF20
C 3.1177483485 3.7167069719 -1.8334028763
C 2.8359752607 2.5744179654 -0.8545226399
C 2.2096793445 3.1328127382 0.4285117421
C 4.1357414944 1.8236671248 -0.5452802544
N 1.8761969681 1.6779287173 -1.5426596740
C 1.3810751687 0.5387822202 -1.0301401005
O 1.6116735074 0.0502322923 0.0620325613
O 0.5417597884 -0.0590080369 -1.9674164773
C -0.2122632712 -1.1498928407 -1.5412696083
C -0.0171125845 -2.3642979079 -2.1829134966
C -0.8370560306 -3.4332992362 -1.8245838170
C -1.7997596646 -3.2940362050 -0.8342969928
C -1.9773366526 -2.0591265807 -0.1927655575
C -1.1847167538 -0.9705850742 -0.5673048930
N -2.9816961936 -1.9591304758 0.7848893511
C -3.2414709088 -0.8860222933 1.6459605403
O -4.4066119893 -0.5114254634 1.8297560618
N -2.1719903311 -0.3217501267 2.2685782235
C -2.3860794783 0.9012873029 3.0341232642
C -0.9010065525 -1.0013228333 2.5115862311
H 2.1968204527 4.2566776140 -2.0783297602
H 3.8179908178 4.4212722503 -1.3779008565
H 3.5639154478 3.3367437484 -2.7586624627
H 1.2892073040 3.6784543339 0.1977855504
H 1.9781944868 2.3310881211 1.1336252842
H 2.9119244645 3.8229236843 0.9059355031
H 4.8493845214 2.5093402689 -0.0784955560
H 4.5800371447 1.4338960600 -1.4665051789
H 3.9550741948 0.9924226134 0.1397455012
H 1.5586949042 1.9414182850 -2.4634555739
H 0.7516372917 -2.4618993021 -2.9409763835
H -0.7112807280 -4.3934218426 -2.3147667709
H -2.4206535541 -4.1373314101 -0.5478272601
H -3.1938151246 1.4823338279 2.5880651375
H -1.4639256079 1.4904728723 3.0174045319
H -2.6433662361 0.6810280078 4.0790887056
H -0.9567290271 -2.0446296694 2.2007746903
H -0.0783399198 -0.5148880819 1.9743797289
H -0.6886877572 -0.9721363677 3.5868590827
H -3.8133585337 -2.5020420164 0.5991013427
H -1.3230672056 0.0063102324 -0.1197091628
