23
CONF22
C -2.8663093563 -0.3504186096 -0.9160360367
C -1.8004259574 -1.2107611075 -0.2837969710
C -0.3869386968 -0.5477729432 -0.4232239075
C 0.7413276226 -1.1954532818 0.4422965029
C 2.2289451571 -0.8257977312 0.0667032593
C 2.5993322711 0.6901638889 0.0294901264
C 4.1383066547 0.9783410824 0.0167403175
F 4.6873087821 0.6981742650 1.2030946848
F 4.7479705287 0.2566610025 -0.9324077501
F 4.3240209454 2.2798331239 -0.2431939223
F 2.0818887243 1.3125095135 1.1126098030
F 2.0738225134 1.2350521272 -1.0908438189
F 3.0010111432 -1.4257395320 1.0077084340
F 2.5161255440 -1.3709722930 -1.1343456201
F 0.5442856256 -0.8667850702 1.7373394610
F 0.6677709214 -2.5434395328 0.3231707272
F -0.4853548247 0.7556813228 -0.0548488459
F -0.0320403720 -0.6035453210 -1.7302024559
F -1.7372631432 -2.4373164062 -0.8755381497
F -2.0387687615 -1.4068267052 1.0465120208
I -4.8076304635 -1.2990681528 -0.7931649530
H -2.9531258628 0.6012239057 -0.3955540034
H -2.6568708574 -0.1995539377 -1.9745955078
