41
CONF92
C -2.2323101049 -2.3745524256 -2.0758784575
C -2.1193291247 -1.0943646198 -2.9107630856
C -1.4310502782 -1.3691895008 -4.2441527636
N -1.4003883518 -0.0049522170 -2.2278723167
C -1.9977006725 0.4372486065 -0.9630328659
C -1.5230933802 1.8576471629 -0.6525098076
O -1.8400114851 2.7354358814 -1.7260898577
C -0.0175357140 1.9433115180 -0.4051028342
O 0.3152321323 1.0176225770 0.6316346092
C 1.6264086232 0.9059701024 1.0077591200
C 2.6551438267 1.6868489086 0.4817854477
C 3.9602131320 1.4988879244 0.9337982103
C 4.2401203492 0.5423210933 1.8995981344
C 3.2023744582 -0.2330612360 2.4131498180
C 1.8908119272 -0.0735435178 1.9805333167
C 0.7664223675 -0.9059799537 2.5508983901
C -0.0427799499 -0.1434234962 3.5631544981
C -0.2166088891 -0.5217417956 4.8257828869
H -1.2344664835 -2.7675172559 -1.8450222382
H -2.7559483439 -2.1973104891 -1.1319752590
H -2.7806139996 -3.1488168768 -2.6222935026
H -3.1321670259 -0.7160977324 -3.1118811674
H -1.3722731509 -0.4582724045 -4.8459068304
H -1.9731507042 -2.1314606869 -4.8111895884
H -0.4113717351 -1.7394699657 -4.0818461642
H -0.4462937289 -0.3130599718 -2.0566160946
H -3.0861558530 0.4751758126 -1.0954185780
H -1.7855351699 -0.2201218830 -0.1060972819
H -2.0527024744 2.2218029321 0.2364501080
H -1.6673310336 2.2090608248 -2.5246522604
H 0.2428004940 2.9691174936 -0.1129569100
H 0.5277660803 1.6988416741 -1.3294696525
H 2.4528084065 2.4395457855 -0.2700485585
H 4.7561684805 2.1113046887 0.5223753784
H 5.2555960823 0.3963673858 2.2514059603
H 3.4116116055 -0.9841707700 3.1701279383
H 0.1071625370 -1.2261087886 1.7332228575
H 1.1806759506 -1.8064943173 3.0153342202
H -0.4924541976 0.7814761569 3.2059364537
H 0.2263664381 -1.4375137549 5.2095058309
H -0.8064105429 0.0698775381 5.5183228908
