64
CONF29
C 2.1047422722 0.4592491624 -1.7805945293
C 1.7041133892 0.0187770953 -3.1732825202
O 0.2912091554 0.0491673883 -3.3994711066
C -0.2000485979 1.3292347676 -3.8054002218
C -1.7099940795 1.2838069728 -3.7782106364
O -2.2281686058 0.9693114664 -2.4721023782
C -2.0675129510 1.8705909732 -1.4598234947
C -1.7693335152 3.2201732296 -1.6178635795
C -1.6656965973 4.0548711089 -0.5007406115
C -1.8670626372 3.5438461027 0.7729428280
C -2.1675684231 2.1896394728 0.9453516001
C -2.2604958517 1.3482603994 -0.1587842031
O -2.5388193883 0.0162671727 -0.1030288189
C -2.5582945040 -0.6126186169 1.1904485382
C -2.7069555874 -2.1062130960 0.9880156943
O -1.4988809970 -2.7840573797 0.6480681539
C -1.0216423102 -2.5295125906 -0.6788331395
C 0.1101317179 -3.4812337435 -1.0062423447
O 1.3393083007 -3.1579769871 -0.3481453127
C 1.4413183767 -3.6918059879 0.9746111644
C 2.6588633808 -3.0881525733 1.6346644192
O 2.5890269900 -1.6522381854 1.7128915760
C 1.6496306347 -1.0753817303 2.5175653602
C 0.9688334202 -1.7105481576 3.5512466684
C 0.0530401100 -0.9999764112 4.3335612556
C -0.1772108958 0.3458568556 4.0891632543
C 0.5002640033 0.9958344007 3.0537534365
C 1.4037285908 0.2947474512 2.2612869117
O 2.1077813243 0.8278918091 1.2247391218
C 1.7597401142 2.1529687200 0.7866025980
C 2.5271674256 2.4464962598 -0.4854090060
O 1.9608495582 1.8799946059 -1.6655192255
H 3.1548436233 0.1728113700 -1.6036993365
H 1.4803579344 -0.0594177835 -1.0400111244
H 2.0063615447 -1.0281382931 -3.2918129007
H 2.2289937261 0.6185597150 -3.9321271768
H 0.1211577685 1.5573635030 -4.8350639479
H 0.1814448433 2.1130063142 -3.1432386780
H -2.0766976668 0.4713698029 -4.4111566106
H -2.1228296871 2.2284464172 -4.1536684144
H -1.6155326039 3.6341234800 -2.6073200078
H -1.4277693564 5.1040746436 -0.6425529597
H -1.7863514570 4.1859383118 1.6441377511
H -2.3133280702 1.7957279894 1.9439190581
H -3.4114697045 -0.2375627962 1.7735805449
H -1.6289533146 -0.3914031922 1.7344453663
H -3.0301145181 -2.5440285894 1.9380507804
H -3.4835476603 -2.3018438437 0.2315903813
H -1.8373277241 -2.6800920021 -1.4054417325
H -0.6665774647 -1.4941729059 -0.7742304291
H 0.3130793579 -3.4006805634 -2.0802942550
H -0.1837637118 -4.5188765976 -0.7868538569
H 0.5349740221 -3.4706148971 1.5472397025
H 1.5726624397 -4.7858732815 0.9404990033
H 2.8111947683 -3.5339378531 2.6255014306
H 3.5505927555 -3.2771535057 1.0311284118
H 1.1431358428 -2.7596211271 3.7589999209
H -0.4721648786 -1.5127116087 5.1328170302
H -0.8870856657 0.9024772952 4.6925288048
H 0.3097341649 2.0452346621 2.8638115294
H 2.0383938523 2.8854721317 1.5577276619
H 0.6777946691 2.2198823214 0.6047460294
H 3.5742227215 2.1248258789 -0.3686108059
H 2.5125047165 3.5295450440 -0.6451308213
