63
CONF13
C 4.0704740823 2.9497402462 0.1189851874
O 4.7551087858 1.7425527048 0.5393960676
C 4.0286636954 0.9324801349 1.3069023122
O 2.9012471702 1.1343813547 1.7004904549
O 4.7890565413 -0.1427119788 1.5989619990
C 4.0970383727 -1.2158853258 2.2628363584
O 3.3532813490 -1.9391102393 1.2995544074
C 1.9952966901 -1.8897608529 1.3835388825
C 1.2420525341 -1.3837679711 0.3502052326
C 1.8340950871 -0.8046560165 -0.9038638249
O 3.0266519656 -0.5241242264 -0.9918285887
N 0.9637247318 -0.6368931197 -1.9460134696
C 1.4626836225 -0.6630380043 -3.3244862419
C 1.2794785751 -2.0856818601 -3.8503651728
O -0.0889738220 -2.5056320651 -3.7446097075
C -0.5594184545 -2.4926889903 -2.3948760748
C -0.4387236925 -1.0658013973 -1.8553943796
N -0.9646881696 -0.8872767410 -0.5189550744
N -0.1335879302 -1.5537603303 0.4046272418
C -0.7453010754 -2.1842509543 1.4391798637
C -0.0343483676 -2.6701767633 2.4926029304
C 1.3915875556 -2.5347949754 2.5560811925
O 2.1007248137 -2.9515397824 3.4937590994
C -1.1045254662 0.5747056895 -0.1357228913
C -2.0079979285 1.3105325971 -1.0973347027
C -3.3289279894 0.8980911929 -1.3471386535
C -3.9053112684 -0.3286584690 -0.7212053738
S -4.2637386075 -0.0969641535 1.0656786467
C -2.7697215629 0.4521700980 1.8701086412
C -2.9656111509 0.6228767839 3.2511219063
C -1.9371079336 1.0367163615 4.0818902095
C -0.6798784445 1.3056083038 3.5466859851
C -0.4835460933 1.1497590457 2.1836497022
C -1.5012569635 0.7186266877 1.3194065471
C -4.1021790497 1.6788564651 -2.1980288912
C -3.5958326973 2.8242508840 -2.7990809993
C -2.2970277638 3.2272305695 -2.5641375125
C -1.5098112810 2.4601266888 -1.7111919570
F -4.3960238919 3.5306170468 -3.6197009250
F -5.3767913511 1.3314497702 -2.4649606547
H 3.7979328804 3.5506801051 0.9893592400
H 3.1774742863 2.6891214748 -0.4543291425
H 4.7874818750 3.4799431301 -0.5059321242
H 3.4605963641 -0.8242900035 3.0569722497
H 4.8906989508 -1.8593871696 2.6394447418
H 2.5144356260 -0.3719175497 -3.3366358009
H 0.8815198095 0.0475069077 -3.9231504665
H 1.5348523203 -2.1392156938 -4.9118174225
H 1.9269044344 -2.7737168899 -3.2841288124
H 0.0191436673 -3.1951610418 -1.7739147784
H -1.6080694757 -2.8009989062 -2.4198405116
H -1.0194039466 -0.4111587158 -2.5166558384
H -1.8229840008 -2.2616824312 1.3534158265
H -0.5518627786 -3.1883034917 3.2915763394
H -0.1182888759 1.0492365583 -0.2210230654
H -3.2505199980 -1.1901746232 -0.8481468522
H -4.8854183275 -0.5639320986 -1.1412820539
H -3.9453669917 0.4198659192 3.6752145805
H -2.1229774919 1.1506786482 5.1450496347
H 0.1374866790 1.6320991770 4.1807049732
H 0.4975477710 1.3500361848 1.7643706134
H -1.9155617059 4.1211141892 -3.0449746188
H -0.4864583979 2.7660571978 -1.5192020005
