65
CONF647
C 0.4130269391 2.7857046574 -0.6024875824
C 1.4651096921 3.1636114129 0.4353093474
C 1.2268187585 2.4958907037 1.7980857251
C 2.1763280422 3.0488692713 2.8676550817
C 1.4324485021 0.9963508909 1.6966400426
O 2.5082635430 0.4679238768 1.4858827280
O 0.2836644306 0.3225721760 1.8908225408
C 0.3439067595 -1.1349290783 2.0503381027
C 0.3092096728 -1.4529372026 3.5371221532
C -0.9667339742 -0.9536762773 4.2437330136
C -2.1533931803 -0.9546568974 3.3291559235
C -2.1382538898 -1.2798182111 2.0221503136
C -0.8630193453 -1.7260822967 1.3287280204
C -0.8862396429 -1.4455185590 -0.1897266059
C -2.1720111826 -2.0185386752 -0.8273577188
C -3.3872480989 -1.5637722458 -0.0721485245
C -3.3521708210 -1.2328172256 1.2280803500
C -2.1904214497 -3.5548701712 -0.9418846622
C 0.3953335118 -1.9659214044 -0.8617682990
C 0.4467648071 -1.8405394564 -2.3881287884
C 0.4896697260 -0.4121870615 -2.8994853570
C 0.4097158789 -0.3106070229 -4.4084312826
C 0.6469519387 1.1213330225 -4.8533805467
C 2.0320048132 1.5576967616 -4.3952337799
C 2.3999229364 1.1704184035 -2.9829100663
O 3.3311375538 1.6852067219 -2.3934947453
O 1.7425778440 0.1662134803 -2.3781600489
O -0.3807604141 1.9252536787 -4.2515270680
C -0.7899598059 0.4306976241 4.8947077644
H 0.3925679430 1.7034283901 -0.7650908995
H -0.5864088871 3.0960332036 -0.2787481291
H 0.6218652800 3.2597100356 -1.5667690950
H 2.4664435934 2.8926213759 0.0798266239
H 1.4625177517 4.2490310214 0.5914775978
H 0.1895341312 2.6741602419 2.1025614075
H 1.9999257703 4.1207093920 2.9964249720
H 2.0217136827 2.5558414443 3.8327011915
H 3.2174499552 2.9003767946 2.5662202978
H 1.2788807942 -1.4892110612 1.6149489066
H 0.3809701437 -2.5434761872 3.6235559714
H 1.1987612864 -1.0348754384 4.0219604723
H -1.1822751909 -1.6536447909 5.0650432522
H -3.0996288241 -0.6438430520 3.7733191408
H -0.7695631522 -2.8158975114 1.4547962417
H -0.9385581646 -0.3548940714 -0.3146392875
H -2.2470485946 -1.6144629412 -1.8461860965
H -4.3330336505 -1.5465898018 -0.6102526596
H -4.2635418762 -0.9251777011 1.7382160813
H -2.1037517087 -4.0219405139 0.0443690541
H -3.1376878568 -3.8842386578 -1.3807634074
H -1.3797272142 -3.9292965602 -1.5739304943
H 1.2602186616 -1.4335856975 -0.4536820295
H 0.5312861573 -3.0217439847 -0.5944010699
H 1.3355133038 -2.3620417649 -2.7647730991
H -0.4187048062 -2.3258232140 -2.8524848242
H -0.3135495011 0.1829144843 -2.4508671691
H 1.1566654719 -0.9644464764 -4.8741697029
H -0.5826960537 -0.6475212945 -4.7248308961
H 0.5858708367 1.1949833891 -5.9478231908
H 2.7900091887 1.0861741054 -5.0356915178
H 2.1709337308 2.6385111879 -4.4942234097
H -0.2382084640 2.8410408992 -4.5214841673
H -0.5680420384 1.1913630146 4.1413930992
H 0.0312888823 0.4087513793 5.6188381835
H -1.7026334441 0.7261901742 5.4228729118
