110
CONF14
C -3.0683458316 -0.0181155435 -1.1239373119
N -3.9788794948 -0.4420540666 -2.2065234063
C -3.4145790986 -1.6777539916 -2.7874598457
C -2.5443289804 -2.2777199782 -1.6646507608
C -2.7575510242 -1.3599629039 -0.4335088962
C -1.5677744776 -1.3205203852 0.4866090948
C -0.2688392257 -0.9246058855 0.2326020611
C 0.7118867535 -0.9865014946 1.2290817795
C 0.3178074322 -1.4397166041 2.5059895156
O 1.2781707099 -1.3877347035 3.4783416981
C 0.9909280036 -1.9465067493 4.7657827050
C -0.9777281004 -1.8944041820 2.7687460317
C -1.9185047752 -1.8156282206 1.7413402293
N -3.2548396066 -2.1498700144 1.8031842736
C -3.6889006188 -3.2549343816 2.6463981341
C -3.9122326522 -1.8824616214 0.5136707669
C -5.0986179678 -0.8644121232 0.6526575790
O -5.9226336981 -0.9218765427 -0.4998468169
C -4.4949498870 0.5228560842 0.9309851408
O -5.4816787626 1.4818395716 1.3177136317
C -3.6794667054 1.1047968593 -0.2594959368
C -2.5530827790 1.9728650407 0.3833469626
C -1.7287703510 2.8329323544 -0.5702463170
C -4.5109669984 2.0168535746 -1.1314101016
C -4.7236758780 1.8400651947 -2.4341927847
C -4.2734397601 0.6142727111 -3.1653563862
C -5.9818608050 -1.2666083123 1.8503760974
N -6.9663774258 -2.1332984686 1.5536836220
O -5.7718488903 -0.8426955218 2.9917489546
C 2.1319988327 -0.4522167680 0.9593629408
C 2.5544424797 -0.7673063708 -0.5101523864
C 4.0546600084 -0.6638080487 -0.8454935203
C 4.6170090790 0.7591270369 -0.8212851327
N 4.1376683592 1.6127295347 -1.9308984050
C 3.6263794494 0.8989459234 -3.1031879137
C 4.4990712535 -0.3184717335 -3.3881463459
O 5.8725770683 0.1252078771 -3.5260186044
C 4.1035074961 -0.9607834422 -4.7195041535
C 4.9425923847 -2.1810669308 -5.0951007694
C 4.3650557035 -1.3183824257 -2.2164898838
C 3.3106922727 2.7532746769 -1.5525432525
C 1.9278699944 2.4480215665 -0.9240145306
C 1.9499206057 2.1804052662 0.5527934054
C 2.0971451074 1.0239914725 1.3069632404
N 2.0356923133 1.3591088411 2.6510286768
C 1.8771426930 2.7081361155 2.7997708278
C 1.7779350786 3.4891694794 3.9507863422
C 1.6146507160 4.8587022153 3.7802339046
C 1.5544247137 5.4309945337 2.4955321475
C 1.6574114737 4.6470194947 1.3536244055
C 1.8221437815 3.2608342048 1.4938153576
C 3.1796260586 -1.1980258823 1.8085426507
O 4.0565520086 -0.6836374840 2.4697885355
O 3.0728397469 -2.5234103431 1.6189480856
C 4.0305319835 -3.3309186728 2.3422829744
H -2.1250151332 0.3543649384 -1.5605861880
H -2.8015322113 -1.4474755207 -3.6718057707
H -4.2277098565 -2.3403287765 -3.1045665515
H -1.4882903377 -2.2415623585 -1.9469422356
H -2.7918024736 -3.3169538354 -1.4361010323
H -0.0098789856 -0.5559677144 -0.7550187817
H 0.7296249320 -3.0073113742 4.6807040662
H 1.9099482940 -1.8370960405 5.3425863191
H 0.1786715963 -1.4003665250 5.2586564802
H -1.2566799933 -2.2583058073 3.7487643963
H -3.1097090258 -4.1692563660 2.4424650326
H -3.5810914125 -2.9997171296 3.7057719508
H -4.7439490980 -3.4638657631 2.4639998706
H -4.3469669882 -2.8067130470 0.1082027788
H -5.3003296828 -0.7607909782 -1.2844405470
H -3.7927409977 0.3740617682 1.7636373159
H -5.7748782543 1.2133917831 2.2001108757
H -3.0402012362 2.6213335630 1.1218019038
H -1.8879167206 1.3011538007 0.9389207047
H -2.3492140089 3.5710065286 -1.0870464091
H -1.2149936817 2.2350766533 -1.3302280421
H -0.9590203385 3.3704986104 -0.0069055484
H -4.8755449042 2.9187366462 -0.6478798115
H -5.2554876978 2.5922110190 -3.0113244098
H -3.3906771009 0.8409093338 -3.7966965595
H -5.0628076754 0.2671262093 -3.8454202626
H -7.6156973703 -2.4131307583 2.2725580768
H -7.1611178784 -2.3498744664 0.5883381718
H 1.9747836979 -0.1449511359 -1.1874890173
H 2.2418646741 -1.7995484994 -0.6924636476
H 4.6108017318 -1.2311032112 -0.0898171107
H 5.7141211322 0.6743933291 -0.8714512776
H 4.3855259983 1.2487130854 0.1276381755
H 2.5818939790 0.5510850597 -3.0057886940
H 3.6526441011 1.5853969626 -3.9617481050
H 5.9350248724 0.9640265727 -3.0454114091
H 3.0437964205 -1.2391785426 -4.6626054452
H 4.1951667086 -0.1963591581 -5.5011202610
H 4.6412112487 -2.5635159903 -6.0750193026
H 4.8221326034 -2.9930680209 -4.3712533212
H 6.0047391398 -1.9252491081 -5.1450599543
H 5.3005654436 -1.8825328911 -2.1534896014
H 3.5748037723 -2.0390349127 -2.4572660257
H 3.8779425090 3.3836086887 -0.8546958499
H 3.1499954850 3.3459581077 -2.4632014319
H 1.4227220272 1.6604561234 -1.4888927809
H 1.3090927110 3.3404174255 -1.0755403005
H 2.1222349497 0.6898290911 3.3996590779
H 1.8238392098 3.0437032688 4.9399110772
H 1.5316439903 5.4983708741 4.6534597013
H 1.4263377850 6.5048323714 2.3991832674
H 1.6127225813 5.1056795123 0.3697714697
H 3.7966185284 -4.3619518666 2.0799107314
H 5.0487850586 -3.0768082457 2.0372744482
H 3.9155385120 -3.1710621049 3.4176818808
