73
CONF528
C 0.4814701727 2.4368884111 -2.2790544816
C -0.6470770474 2.5691106614 -1.2803415323
O -1.8797644315 2.4727883588 -2.0328667689
C -3.0527296181 2.5345594425 -1.2518659659
O -3.1562774921 1.4537207447 -0.3340115148
C -3.5115061381 0.1977871556 -0.9175807450
C -4.9885780470 -0.0877688642 -0.6732443092
O -5.7463601855 0.8672621038 -1.4118275194
C -5.3542000458 -1.5166561473 -1.0704287703
O -6.7312634120 -1.7745403311 -0.7889074674
C -4.4260634096 -2.5061036055 -0.3632382261
C -4.6289159721 -3.9491707889 -0.7902218858
O -4.4646057173 -4.1345017634 -2.1954335777
O -3.0653009594 -2.1717725820 -0.6978664987
C -2.6802930982 -0.8886692944 -0.2401541947
O -1.3366295147 -0.6986761844 -0.6203283368
C -0.3532663244 -1.2829037337 0.1256364583
C -0.6038254094 -2.2124909327 1.1352688230
C 0.4788338012 -2.7271751867 1.8401730843
O 0.2481687235 -3.6431337343 2.7924752686
C 1.8102833182 -2.3236580337 1.5488161966
C 2.9333439100 -2.9502225850 2.1926001449
O 2.8039192589 -3.8233567476 3.0739308428
C 4.2946436581 -2.5251345388 1.7094204749
C 4.2661667610 -1.0841108070 1.2177342107
O 3.2452968351 -0.9387712076 0.1782771741
C 2.0070025099 -1.3736138768 0.5153082833
C 0.9401683009 -0.8597016333 -0.1982484602
C 5.5680596320 -0.6149261006 0.6427758838
C 6.0905304738 -1.1929936336 -0.5170873842
C 7.3076714033 -0.7716988669 -1.0359859353
C 8.0262071334 0.2354198928 -0.3850992497
O 9.2297311589 0.6878348214 -0.8418598937
C 7.5178921064 0.8203778910 0.7747612257
C 6.2926528906 0.3966923075 1.2745780995
C -3.1253046917 3.8152838109 -0.4102319279
O -3.2374950368 4.9611961302 -1.2604968036
C -1.8419631219 3.9867813846 0.3936147262
O -1.8390083967 5.2144702517 1.1274130870
C -0.6248788994 3.8957069375 -0.5233673455
O 0.5813617627 3.9397973257 0.2423146081
H 1.4444387422 2.4663092575 -1.7635611470
H 0.4450277552 3.2558564491 -3.0048659262
H -0.6091129773 1.7499781640 -0.5488703158
H -3.8769371285 2.5085452895 -1.9743597910
H -3.2898694229 0.1878240683 -1.9934911230
H -5.1812273901 0.0304290415 0.4090358409
H -5.2427008259 -1.6340207533 -2.1539791455
H -6.8609921856 -1.7137573451 0.1686716701
H -4.5704217527 -2.4369669886 0.7300308376
H -5.6517690616 -4.2498631985 -0.5478719830
H -3.9336921315 -4.5841897902 -0.2228338605
H -3.5536601261 -3.8980531462 -2.4131264149
H -2.7832081128 -0.8164842984 0.8563349463
H -1.5969860134 -2.5758303910 1.3626665109
H 1.1460575854 -3.9153731679 3.1350295939
H 4.5933838060 -3.1982320956 0.8935436434
H 3.9707619841 -0.4261069077 2.0468283435
H 5.5389757619 -1.9755239126 -1.0299474769
H 7.7052632776 -1.2214830551 -1.9421528463
H 9.4706730616 0.2120424433 -1.6481802926
H 8.0821014418 1.6052550050 1.2676732615
H 5.8951707618 0.8619290731 2.1724194192
H -3.9860897607 3.7483911852 0.2679278124
H -4.1560015035 5.0369918652 -1.5461244737
H -1.7770672300 3.1839143932 1.1370087204
H -2.1088584372 5.9056835708 0.5045247219
H -0.6497631576 4.7235104580 -1.2505333440
H 0.4973914007 4.6938652206 0.8423039305
H 0.4000527033 1.4869113878 -2.8154531269
H 5.0230451896 -2.6358081274 2.5174340879
H -6.6774184158 0.6258569914 -1.3084439476
H 1.0991193527 -0.1220750740 -0.9747722811
