47
CONF69
C -2.1229498990 0.4149564700 4.0899495949
C -2.7353304691 0.7033126230 2.7362389737
C -3.2366315458 -0.4906843662 1.9659504161
C -1.9183360687 0.2009697670 1.5461948001
C -1.8302090542 0.9536430721 0.2904278504
O -2.7143031856 1.5321193098 -0.3070811039
O -0.5367643139 0.9292467978 -0.1694260749
C -0.3010353462 1.6707755401 -1.3928644083
C -0.9282000499 0.9681690953 -2.5197911500
N -1.3926370012 0.4106049560 -3.4183785691
C 1.1917113046 1.7889035302 -1.5808003079
C 1.7849683820 3.0483683501 -1.5889740151
C 3.1655467577 3.1484159290 -1.7522541586
C 3.9452130812 2.0077865470 -1.8894511171
C 3.3347380439 0.7528917298 -1.8735869844
C 1.9564160442 0.6322406163 -1.7323910085
O 4.1598588745 -0.3313242614 -2.0709320723
C 3.7850099756 -1.5688600284 -1.5602747400
C 3.4245587729 -1.7166391201 -0.2232342492
C 3.1311529879 -2.9894046004 0.2567968264
C 3.2074823953 -4.0986098749 -0.5850539850
C 3.5799996922 -3.9313182151 -1.9167563887
C 3.8674071665 -2.6618898475 -2.4140512595
C -4.4312234618 -0.4281770983 1.1235480253
C -5.2129068682 -1.4646495296 0.8204027726
Br -6.7755989653 -1.2528037418 -0.2506808203
Br -4.8979088175 -3.2524256795 1.3953311443
C -3.4545351900 2.0298644031 2.6690039375
H -2.9056313235 0.4137443361 4.8561598932
H -1.3935069165 1.1903145959 4.3469102962
H -1.6206023934 -0.5559726542 4.1064062736
H -3.0535026808 -1.4533540494 2.4328388912
H -1.0177659051 -0.3494089430 1.7951904756
H -0.7597414580 2.6625836963 -1.3194663822
H 1.1773920564 3.9390011279 -1.4682377490
H 3.6392770638 4.1244648229 -1.7617789370
H 5.0214095650 2.0724667367 -2.0100790892
H 1.4841756243 -0.3447361984 -1.7361120608
H 3.3760338851 -0.8495449276 0.4275898614
H 2.8503795992 -3.1136479083 1.2979821370
H 2.9804652873 -5.0883337920 -0.2027311340
H 3.6435998575 -4.7899770974 -2.5777200880
H 4.1552906279 -2.5120063227 -3.4493720133
H -4.7247769240 0.5309476712 0.7117986305
H -4.2841718455 2.0253573628 3.3838232304
H -3.8482420588 2.2615705618 1.6800075583
H -2.7655744033 2.8310493064 2.9559749621
