67
CONF5
C 1.0795244171 1.8311283869 -0.6120829937
C 0.5052696664 2.7158067871 -1.7443413709
C -0.9762417380 2.2823692356 -1.9218634734
C -1.2260887173 1.3416082175 -0.7399259581
C -2.4342284375 0.4120581334 -0.7606404035
C -3.7326384793 1.1843804334 -1.0139873056
C -4.9654787356 0.2881364229 -0.8968932378
C -4.9566605367 -0.3749755050 0.4694375821
N -6.1836560088 -1.1342442679 0.7137408638
C -6.3358594108 -1.8741823379 1.8426607018
O -7.4256335413 -2.3443074601 2.2001070827
C -5.0872334030 -2.1252879712 2.5938822323
C -3.8813538159 -1.8700519934 2.0692811895
C -3.7210309987 -1.2750625379 0.6901590600
C -3.6586236962 -2.4570168626 -0.3002354511
C -2.4677018404 -0.3590116104 0.5845257560
C -1.1411297782 -1.0957955007 0.8265005105
C 0.0750210636 -0.1572818909 0.7672355058
C 0.1163659604 0.6001788784 -0.5605478658
C 0.4425759468 -0.3519931014 -1.7200754070
C 2.5302095956 1.4459801357 -0.8052974445
O 3.1113250764 1.4651586871 -1.8825853266
N 3.1370847706 1.0251940808 0.3659863862
C 4.4322592794 0.5200833889 0.5141474626
C 5.0607295547 -0.1636137270 -0.5338727757
C 6.3367442242 -0.6753700120 -0.3567566966
C 7.0168396937 -0.5402625354 0.8519571660
C 6.3947084862 0.1234504793 1.8965700757
C 5.1187333456 0.6604614227 1.7376035600
C 4.4923884369 1.4063989756 2.8810064871
F 4.2078171502 2.6943343324 2.5548415457
F 5.2773603607 1.4413772119 3.9727815709
F 3.3077756916 0.8438368674 3.2701459791
C 7.0177647943 -1.4137029450 -1.4747985389
F 8.2081993343 -0.8422831184 -1.7925357092
F 6.2825317524 -1.4545992743 -2.6049179436
F 7.2901169199 -2.6990941119 -1.1291153190
H 0.9817731419 2.3500545267 0.3503825366
H 1.0789956519 2.5679982137 -2.6620087491
H 0.5895983092 3.7724456057 -1.4767327022
H -1.1204611065 1.7535854480 -2.8710338235
H -1.6561382755 3.1383894080 -1.9210857457
H -1.3348546398 1.9754509685 0.1569234394
H -2.3103781321 -0.3096170431 -1.5803568997
H -3.8123963729 2.0031898091 -0.2837647691
H -3.6992011869 1.6451453150 -2.0070364805
H -4.9690923527 -0.4710012560 -1.6884176704
H -5.8801650421 0.8829010282 -1.0107278859
H -4.8861266726 0.4271404223 1.2260802910
H -7.0300016067 -0.8520443266 0.2370821648
H -5.2060590956 -2.6037253916 3.5605776317
H -2.9887021781 -2.1621129068 2.6174700033
H -2.9138364694 -3.1869767782 0.0282779627
H -3.3915510893 -2.1321565557 -1.3089622328
H -4.6270085824 -2.9632167878 -0.3435414841
H -2.5729467616 0.4002977394 1.3779693209
H -1.0212017562 -1.8939025844 0.0856399462
H -1.1492459930 -1.5843445362 1.8061754187
H 0.0111959518 0.5691830073 1.5904133729
H 0.9908265625 -0.7432015630 0.9168557705
H 0.5498826198 0.1816365451 -2.6679588812
H -0.3256791075 -1.1167044060 -1.8532746369
H 1.3888443234 -0.8689359270 -1.5228308110
H 2.5938295794 1.1516684225 1.2072230584
H 4.5384137290 -0.2939335058 -1.4693075791
H 8.0139811134 -0.9466017840 0.9789718977
H 6.9099198541 0.2355837059 2.8423713283
