39
CONF25
C -4.1420889823 2.9564166833 -2.6729358604
N -3.4193226670 1.9587807551 -1.8933778512
C -2.2515730137 1.3666626115 -2.2023414051
C -1.9625958934 0.4656377432 -1.1845525400
C -3.0554046788 0.6103802611 -0.2886711919
N -3.9270506972 1.5202492218 -0.7303734199
C -3.3604187481 -0.0187727036 1.0213635397
F -3.4865527611 -1.3989051533 0.8894556337
F -2.3292213863 0.1716018422 1.9177374301
C -0.7341315805 -0.3490296501 -1.1832419046
O 0.2081434820 -0.0774824571 -1.9294533859
N -0.7085013000 -1.4007987056 -0.3069218351
C 0.3970102680 -2.2738407210 -0.1647784803
C 1.6797470268 -1.7871977850 0.1515859082
C 2.7382451289 -2.6990666919 0.2313755887
C 2.4935791444 -4.0462967075 0.0458909903
C 1.2324729288 -4.5488824978 -0.2213700506
C 0.1861164877 -3.6425154588 -0.3377845837
F 3.5337431256 -4.9121177234 0.1484497524
C 1.9477460165 -0.3611343718 0.4369048337
C 1.1547748843 0.3393947259 1.3484977584
C 1.4180808200 1.6749358219 1.6249735041
C 2.4816076585 2.3279078746 0.9989933271
C 3.2846699759 1.6303438214 0.1021642434
C 3.0191921082 0.2970433905 -0.1739675179
Cl 2.8282206373 4.0080689155 1.3232339192
Cl 0.4008142608 2.5110623726 2.7742668854
H -4.3267038179 3.8371043277 -2.0540253394
H -5.0926094998 2.5390955155 -3.0144484379
H -3.5292683239 3.2299659015 -3.5319776643
H -1.7060796074 1.6049764634 -3.1035287597
H -4.2848250163 0.3640092782 1.4620336938
H 1.0773554828 -5.6140016919 -0.3509625648
H 0.3328945210 -0.1528432957 1.8544016690
H 4.1095111640 2.1396945768 -0.3832681947
H 3.7390125951 -2.3618675169 0.4790933071
H -0.8104475184 -3.9968856079 -0.5819563047
H 3.6393666461 -0.2292443654 -0.8919144234
H -1.5885063317 -1.7201471582 0.0745583179
