21
CONF52
C -1.3848119290 -0.4185844921 0.9649847170
C -2.8919695384 -0.2585680693 0.8049165158
O -3.3668717073 -1.2768225057 -0.0772072631
C -0.5941452013 0.1772762388 -0.1802646642
C 0.9387791630 -0.0780465334 -0.0526668891
C 1.8446198828 0.7631207887 -1.0105405722
C 3.2949799741 0.2037848306 -1.1785440521
F 3.8480480030 -0.0386357699 0.0190975189
F 3.2963540947 -0.9236131916 -1.8981537450
F 4.0397307770 1.1171260984 -1.8190984512
F 1.2922316071 0.8224473912 -2.2435440341
F 1.9507339281 2.0181108666 -0.5172911550
F 1.3206338544 0.2027692829 1.2213894299
F 1.1652217918 -1.3984645242 -0.2800508487
F -0.7768261957 1.5396741194 -0.2258241636
F -0.9968446509 -0.3192747247 -1.3833410546
H -1.1367875145 -1.4812823204 1.0551532473
H -1.0598710928 0.0827748628 1.8803895497
H -3.3495412768 -0.3625425985 1.7990523373
H -3.1308259626 0.7447475924 0.4244843647
H -4.3028377897 -1.1159971093 -0.2407509763
