54
CONF4
C -1.9541335008 1.3956825707 -0.0666809157
C -1.6487969269 -0.0800630218 -0.3682826506
C -0.9479836314 -0.2139097405 -1.7110824068
C 0.4549906394 0.4218034888 -1.6967446501
C 1.3304430730 -0.0752106145 -0.5227004898
C 0.5880925812 -0.0568248236 0.8423502080
C -0.7629337062 -0.7433042198 0.7000846086
C -1.6689716599 -0.8415371902 1.9322844008
C -3.0935980910 -1.0501254798 1.3454729779
C -2.9531969662 -0.9492022450 -0.1894831917
C -4.1238853127 -0.3504264902 -0.9588511843
O -4.2394301049 -0.5928396303 -2.1536596076
C -5.1699520391 0.5010184034 -0.2837904582
O -6.0607894381 1.0763051067 -1.2143847041
O -2.7502753053 -2.2757051475 -0.6847402145
C 1.4302867295 -0.7320993210 1.9240972061
C 2.8153704893 -0.0815853780 2.0472104337
C 3.4758593527 -0.0592723776 0.7068984383
C 4.6190359474 -0.7389697851 0.4833451261
C 5.2637304641 -0.8065987436 -0.8216300683
O 6.3032054222 -1.4606572149 -1.0055561633
C 4.6338933131 -0.0393918877 -1.8919254552
C 3.4881001230 0.6302706231 -1.6934226906
C 2.7366681378 0.6628707400 -0.3973389834
C 2.5687372699 2.1634543782 -0.0436872937
O 1.0651663500 0.1668408179 -2.9706967038
H -2.5802529565 1.8241793729 -0.8570882852
H -1.0406905921 1.9928239409 -0.0262046163
H -2.4677479096 1.5277928234 0.8889846318
H -0.8234493730 -1.2778402149 -1.9521411626
H -1.5189505366 0.2523896939 -2.5225805962
H 0.3593140684 1.5116833301 -1.6527705162
H 1.5639241182 -1.1309369020 -0.7406071742
H 0.4182796442 0.9823566937 1.1507235002
H -0.5713865958 -1.7653638028 0.3434459185
H -1.3798933954 -1.6620801362 2.5933634920
H -1.6217794395 0.0821967933 2.5198346491
H -3.5102616265 -2.0293756011 1.5925144068
H -3.7836592803 -0.2985802329 1.7338483046
H -5.6995399476 -0.1691224764 0.4182003787
H -4.7044742705 1.2869701291 0.3232611301
H -5.8982909091 0.6200971996 -2.0575136568
H -2.8634347480 -2.2375777294 -1.6466716331
H 1.5500677710 -1.7958147273 1.6757580505
H 0.9148792500 -0.6762432011 2.8886885482
H 2.6940467155 0.9412197602 2.4261451779
H 3.4373297887 -0.6272909674 2.7624279239
H 5.1058333585 -1.2774651684 1.2934641427
H 5.1475153713 -0.0098598425 -2.8491627723
H 3.0768819209 1.2347308624 -2.4931259856
H 1.9746492759 2.3144931054 0.8580762571
H 2.0860823419 2.6941810206 -0.8685545796
H 3.5538368070 2.6117982266 0.1165313987
H 1.1815375628 -0.7898848785 -3.0527820912
