44
CONF41
C -1.4005761029 1.1335417063 2.2262465032
C -1.1635902860 1.0092515598 0.7240402087
C -1.9628506576 -0.1848318930 0.1913364554
O -1.5286558962 -1.3098793217 0.0903564591
O -3.2259900814 0.1864208984 -0.0644590571
C -4.1195082535 -0.8489314619 -0.5987646356
C -5.5232005664 -0.4026464275 -0.2455331598
C -3.8785552910 -0.9702339679 -2.0922527853
N 0.2566176074 0.8493703044 0.3604725981
C 1.1708391075 0.2633208561 1.2917434193
C 1.7757667483 1.0532509546 2.2684824582
C 2.6719851576 0.4887776737 3.1663466719
C 2.9675263154 -0.8610802976 3.0727705527
C 2.3706824310 -1.6599973265 2.1006619862
C 1.4602584026 -1.0987098865 1.2153485405
Cl 2.7622033384 -3.3523493035 2.0139273380
F 3.8441863936 -1.3985276016 3.9341597315
C 0.4724562397 0.7786848046 -1.0085460575
O -0.4615198331 0.8976011554 -1.7940111970
C 1.8683273722 0.5831894688 -1.5013881122
C 2.9702341457 1.2455824045 -0.9555913700
C 4.2325325173 1.0713741067 -1.5102113628
C 4.4063347325 0.2221439182 -2.5996726242
C 3.3087206757 -0.4343455945 -3.1506010646
C 2.0421163097 -0.2431089502 -2.6140471175
H -1.0752304019 0.2371976079 2.7604739167
H -0.8744050660 1.9983082971 2.6374704145
H -2.4713729292 1.2719909992 2.3946954232
H -1.5362048361 1.9030026057 0.2157517407
H -3.8678430311 -1.7885495469 -0.0960108601
H -5.6421233982 -0.3031691660 0.8366642743
H -6.2456752463 -1.1401266042 -0.6069769989
H -5.7489482443 0.5603820751 -0.7133968842
H -4.0955211974 -0.0201503946 -2.5896560335
H -4.5319913850 -1.7422546728 -2.5104654971
H -2.8406065570 -1.2430314092 -2.2948245969
H 1.5590139529 2.1149706866 2.3097806179
H 3.1598238457 1.0801705743 3.9329231029
H 0.9648965829 -1.7136044452 0.4740112716
H 2.8391486553 1.9085156504 -0.1081468390
H 5.0827648212 1.5991957506 -1.0904876922
H 5.3951277139 0.0779638015 -3.0231084208
H 3.4401362513 -1.0913317363 -4.0042112733
H 1.1726710328 -0.7273471432 -3.0453000660
