65
CONF16
C -2.8536963602 3.3317842528 2.9085818092
C -1.4398506675 2.8621755749 2.5641363013
C -0.4115667806 3.5299448299 3.4931345886
C -1.0572722529 3.1009917023 1.1179823924
C -1.6770078790 4.0631769155 0.3167392861
C -1.2752234303 4.2950096373 -0.9954668451
C -0.2211852164 3.5709120061 -1.5398565888
C 0.4226305767 2.6093397622 -0.7683550933
C -0.0101564241 2.3848441739 0.5303972376
O 0.6698591566 1.4397855546 1.3205821577
P 0.4851232946 -0.1418163318 1.1322700248
O 1.1986701913 -0.9312515147 2.1461885166
O -1.1273186129 -0.2431996449 1.0934499757
C -1.7183860135 -1.3852354837 0.5294165357
C -1.5559327531 -2.6126918990 1.1543895956
C -2.1513787021 -3.7370171576 0.5918312797
C -2.8971660502 -3.6102141456 -0.5745890610
C -3.0483136567 -2.3638959286 -1.1777584528
C -2.4594201895 -1.2150609921 -0.6438145987
C -2.6189572588 0.1631727794 -1.2487065128
C -3.6739813060 0.9566528071 -0.4609627431
C -2.9549468187 0.1455602235 -2.7390936056
O 0.8915438350 -0.4188288255 -0.4047818452
C 1.7014304055 -1.5045755061 -0.7900047615
C 1.0559574328 -2.5922362966 -1.3634620745
C 1.8097550664 -3.6663579670 -1.8165258440
C 3.1955986873 -3.6358845897 -1.6893190684
C 3.8151604198 -2.5317154490 -1.1187832499
C 3.0871466079 -1.4300193258 -0.6550514410
C 3.7946022351 -0.2346168460 -0.0516303450
C 4.5436974525 -0.6219074772 1.2294736716
C 4.7336057404 0.4224374174 -1.0727972443
H -3.1100732404 3.0088895590 3.9217185022
H -2.9330602500 4.4240836621 2.8866216021
H -3.5983559749 2.9186785837 2.2212318213
H -1.3952286490 1.7809805448 2.7381166612
H 0.5983667386 3.1614060071 3.2983342359
H -0.4184390511 4.6153329285 3.3452394520
H -0.6559252213 3.3243781572 4.5403003479
H -2.4999948587 4.6385453371 0.7255871478
H -1.7841462311 5.0473462514 -1.5891665486
H 0.1058893174 3.7512529277 -2.5583822690
H 1.2471569078 2.0277350474 -1.1635344767
H -0.9550868347 -2.6757314473 2.0552628529
H -2.0271903152 -4.7050331012 1.0652194486
H -3.3638457229 -4.4827112606 -1.0200217299
H -3.6284545699 -2.2852046926 -2.0906585761
H -1.6616636520 0.6834805427 -1.1298391841
H -3.7427575846 1.9801911927 -0.8430416941
H -4.6561926542 0.4798283190 -0.5531493731
H -3.4133543843 1.0062770422 0.5996606252
H -3.9603117634 -0.2474252282 -2.9258478668
H -2.9270269983 1.1667524672 -3.1308750970
H -2.2376661235 -0.4563979570 -3.3059151794
H -0.0261518161 -2.5852974542 -1.4426672707
H 1.3139372761 -4.5217123212 -2.2630128576
H 3.7942174301 -4.4718281209 -2.0360505720
H 4.8970427713 -2.5186698460 -1.0275233963
H 3.0391708489 0.5091345042 0.2200918900
H 4.9976406247 0.2652008956 1.6831346410
H 5.3457613901 -1.3361450215 1.0140932983
H 3.8589466948 -1.0714278091 1.9526167957
H 4.1944442513 0.7052919160 -1.9822633584
H 5.1877683024 1.3222468912 -0.6453295035
H 5.5434367492 -0.2562475411 -1.3599672284
