82
CONF19
C -4.9003923909 2.2795591613 -2.9848564123
C -4.2897369947 2.0791948069 -1.6254390719
C -3.9035984461 3.1175064862 -0.8780235464
C -4.2347282752 0.6307844464 -1.1916528590
C -5.6418689781 0.1757756781 -0.6465879572
C -5.3723004996 -0.4163053872 0.7527216889
C -3.9312489446 -0.9370110978 0.6616293327
C -3.2595216355 0.2560114972 -0.0604434184
C -1.7978532116 -0.0340124194 -0.3989937972
C -1.1172211130 1.0543214422 -1.2317537599
C 0.3417985097 0.7167203515 -1.5592542791
C 1.1623851922 0.3190344199 -0.3209992346
C 2.7018288534 0.1584256972 -0.6051550291
C 3.2264954226 1.5184178140 -1.1210050847
C 4.7492564973 1.6241194283 -1.1102554068
C 5.3157877630 1.3719107229 0.2729599220
C 4.9305385040 -0.0162665484 0.8423394300
C 3.3734792442 -0.1174825219 0.7759594926
C 2.8007504740 -1.3909592430 1.4017269190
C 1.3075286852 -1.2300711244 1.6896906193
C 0.4662622372 -0.8468346336 0.4543949500
C -0.9804233826 -0.3369232205 0.9002530040
C -1.7014923579 -1.3974353631 1.7798965411
C -3.2090800823 -1.1591053264 1.9893122188
C -0.8974904559 0.9375492563 1.7743245478
C 0.3515308127 -2.1148470809 -0.4211901088
C 5.6673258843 -1.1486470545 0.1134982719
C 5.3682378042 -0.0502772841 2.3197142279
O 6.7397170646 1.5663143328 0.1734616886
C 3.0045501221 -0.9060946060 -1.6818415178
C -3.9015668649 -2.2213843645 -0.1917711243
O -4.6083937340 -3.3148953523 0.4188081736
H -5.8806636304 1.7899388506 -3.0449419899
H -5.0215683271 3.3380023165 -3.2286227527
H -4.2718086272 1.8109929260 -3.7531082130
H -4.0259604095 4.1346598793 -1.2405479044
H -3.4503191426 2.9962343490 0.1003084837
H -3.9960067132 0.0369098129 -2.0851366642
H -6.3381383353 1.0180590987 -0.6007702498
H -6.0868941607 -0.5734712989 -1.3085814390
H -5.4090340247 0.3728194620 1.5136525008
H -6.1114293425 -1.1723295485 1.0414575351
H -3.2922244520 1.0768146700 0.6665555189
H -1.7933330337 -0.9406495647 -1.0164663294
H -1.6737242975 1.1922627449 -2.1670630309
H -1.1711720536 2.0175520413 -0.7125656961
H 0.7957425859 1.5864173449 -2.0445371943
H 0.3564173024 -0.0874580542 -2.3033641023
H 1.1334412241 1.1795866999 0.3595279394
H 2.8121998238 2.3205732494 -0.4929429469
H 2.8687540276 1.6961015373 -2.1406691060
H 5.2014305396 0.9219812899 -1.8208049545
H 5.0492814473 2.6277983762 -1.4338980770
H 4.8975848117 2.1281863125 0.9605424460
H 3.0269682147 0.7142705856 1.4153157950
H 3.3039305465 -1.6153595806 2.3468871209
H 2.9821293976 -2.2553982496 0.7538430465
H 1.2106131638 -0.4634302455 2.4656575481
H 0.9150726762 -2.1610905002 2.1171196455
H -1.5704442865 -2.3985975296 1.3619496885
H -1.2154642317 -1.4198751975 2.7624574766
H -3.6350719382 -2.0163154774 2.5242635739
H -3.3761875128 -0.2792083329 2.6231797946
H -0.2392972085 0.7835660704 2.6323863890
H -1.8808848310 1.1833030864 2.1813197893
H -0.5460971285 1.8214521223 1.2414752218
H 1.3232006497 -2.5984255930 -0.5237162204
H -0.0148322287 -1.9159050386 -1.4291752825
H -0.3159510394 -2.8512124542 0.0327188570
H 5.5610559835 -1.0999526171 -0.9710364191
H 6.7358593379 -1.1044052815 0.3451105587
H 5.2929135341 -2.1219344432 0.4459135311
H 5.2218917952 -1.0390288683 2.7624415083
H 4.8094174460 0.6806493546 2.9160194023
H 6.4372685576 0.1719961898 2.4164917811
H 7.1052177057 1.5886042133 1.0656273760
H 3.1508729928 -1.9071544256 -1.2735911186
H 2.1889348960 -0.9608530860 -2.4069110890
H 3.9072775364 -0.6566396817 -2.2446088853
H -4.3028658017 -2.0296297282 -1.1957437770
H -2.8793522608 -2.5844136517 -0.3147096581
H -5.5493092902 -3.1030869845 0.4098223422
