50
CONF20
C 2.9894582203 -2.1386563192 -0.7465900966
C 2.1822198585 -0.9402294187 -1.1886223571
C 1.8261938072 0.0118250887 -0.2332584582
C 1.2199189704 1.2148171706 -0.6354630184
C 0.9887766148 1.4996192624 -1.9592989836
C 1.3038409567 0.5526461570 -2.9543892742
C 1.8408799919 -0.7094523613 -2.5539146432
C 1.9298219906 -1.6685237677 -3.6349266274
N 1.7625082474 -1.3107598107 -4.9043002518
C 1.4040274994 -0.0288946519 -5.1568894548
N 1.0878283983 0.8931823570 -4.2584339550
N 1.3725363412 0.3247112725 -6.4810584148
N 2.1623552204 -2.9888677608 -3.4242129117
C 2.1010423466 -0.2261912958 1.2492260686
N 1.2721173790 0.5382055608 2.1644334638
C -0.1088829011 0.3977289817 2.1745365791
C -0.8821955635 1.3658311285 2.8378060677
C -2.2663220328 1.2183374076 2.9024093268
C -2.9001110755 0.1109155555 2.3162245193
C -2.1188402072 -0.8375908228 1.6451252441
C -0.7300288186 -0.7059013874 1.5720398793
O -2.8110153316 -1.8678340358 1.0802461500
C -2.0610187095 -2.8514951269 0.3561789961
O -4.2680889156 -0.0451274516 2.4109897105
C -4.9760107740 0.5746071018 1.3190558144
O -3.1007976472 2.1027273846 3.5188019346
C -2.5061710592 3.2530060572 4.1329891520
H 2.3545331371 -2.9771834085 -0.4281819166
H 3.6532258849 -2.4902312103 -1.5369507255
H 3.6183848229 -1.8788088935 0.1064799732
H 0.9485085881 1.9464398412 0.1195214399
H 0.5653874178 2.4508676337 -2.2657129207
H 0.8557973451 1.1603791107 -6.7079621643
H 1.3014830579 -0.4293191714 -7.1465575026
H 2.0189122160 -3.5930828544 -4.2198316707
H 1.9831749757 -1.2914206586 1.4791696806
H 3.1455911592 0.0178720622 1.4807373546
H 1.6009210667 1.4704151471 2.3668286066
H -0.3863306217 2.2146339577 3.2932470829
H -0.1408225286 -1.4375648461 1.0382899208
H -1.3468364272 -3.3643619017 1.0108635213
H -1.5283364143 -2.3989689114 -0.4890072997
H -2.7961767737 -3.5662476800 -0.0148682794
H -4.6779421750 0.1265215460 0.3635053253
H -6.0396316930 0.3963629510 1.4927071085
H -4.7815121887 1.6536292068 1.2967728371
H -3.3341033108 3.8177894541 4.5626499805
H -1.8090504292 2.9594461162 4.9263613784
H -1.9843975370 3.8698072137 3.3919151571
H 1.9814684230 -3.3951633712 -2.5227560077
