71
CONF229
C 7.4375757552 -2.5162545664 0.2920692324
C 7.1063639045 -1.9711721162 1.6511054784
C 5.9742709764 -1.1698429433 1.8720641477
C 5.6304556696 -0.7147071641 3.1569887765
C 6.4558421141 -1.0606486684 4.2269981275
C 7.5973138408 -1.8306217371 4.0252997867
C 7.9141156361 -2.2811034967 2.7494526075
C 4.4113614585 0.1384818302 3.3681373406
N 5.1193449393 -0.8344035719 0.7895150575
C 5.4734701804 -0.1018437560 -0.2959874218
O 6.5963600729 0.3612706613 -0.4933336641
C 4.3558884626 0.0622226575 -1.3249657127
N 3.0214637779 -0.0747638260 -0.7547619953
C 2.0211237805 -0.4899179847 -1.7438743899
C 0.6698742234 -0.6780430854 -1.0712175543
N 0.2300054923 0.5646971452 -0.4260735342
C 1.2396502408 0.9769775152 0.5548928402
C 2.5867194299 1.1752227719 -0.1177910855
C -1.0732624849 0.4036876665 0.2303710515
C -2.2298027473 0.2096689376 -0.7465777617
C -3.5740519118 0.2442625804 -0.0211244852
C -4.7589197598 -0.0345989676 -0.9605084828
C -6.0901999989 -0.1937159562 -0.2433612610
C -7.1220685133 -0.8830498055 -0.8912235572
C -8.3751282918 -1.0327304721 -0.3081825777
C -8.5822376003 -0.4753040697 0.9430496505
C -7.5950150791 0.2128669060 1.6226944647
C -6.3455830384 0.3492281582 1.0175347833
F -9.8031938735 -0.6165421659 1.5257933965
C -4.8660277389 1.0271043805 -2.0436322873
C -5.2561984250 2.3312611945 -1.7236726139
C -5.3388751052 3.3184657392 -2.6999087763
C -5.0281455006 2.9752959996 -4.0059244341
C -4.6394711435 1.6989973333 -4.3692605025
C -4.5611989845 0.7275466329 -3.3722103692
F -5.1157273191 3.9321975635 -4.9687176150
H 8.1196553840 -3.3650039598 0.3798108839
H 6.5346438481 -2.8429544870 -0.2336580151
H 7.9113429029 -1.7520924447 -0.3327440859
H 6.2023143817 -0.7123546417 5.2242073475
H 8.2342002642 -2.0879174522 4.8660451368
H 8.7932352033 -2.9006041691 2.5955680449
H 4.4771348121 1.0648616384 2.7868407288
H 4.3051296956 0.3998352496 4.4230958843
H 3.4948472979 -0.3726290460 3.0507102040
H 4.1234432997 -1.0314462320 0.8511726029
H 4.5171349265 1.0252988692 -1.8378996506
H 4.5136470767 -0.7290982041 -2.0704862135
H 1.9247694792 0.2553220840 -2.5564765079
H 2.3373512572 -1.4395131807 -2.1900713731
H 0.7431317914 -1.5038685576 -0.3342371672
H -0.0592767356 -0.9718520872 -1.8323409544
H 0.9224952263 1.9206002669 1.0139798097
H 1.3481922155 0.2267058759 1.3652630098
H 3.3298721393 1.4732289439 0.6309184306
H 2.5122923205 1.9899751385 -0.8630535997
H -1.2589243789 1.3154671867 0.8135748284
H -1.0530376067 -0.4383314848 0.9524246591
H -2.1922977332 1.0007315112 -1.5055596795
H -2.1372150536 -0.7470343771 -1.2749217957
H -3.5804123529 -0.5069423340 0.7796626629
H -3.6986803882 1.2240545042 0.4573091577
H -4.5560114162 -0.9872403120 -1.4666764406
H -6.9412959211 -1.3099441302 -1.8743283411
H -9.1749415149 -1.5704118264 -0.8059747976
H -7.7976375247 0.6306948991 2.6030018100
H -5.5696676995 0.8864309560 1.5515969877
H -5.5078269878 2.5818692910 -0.6969520732
H -5.6431085285 4.3318203137 -2.4606976628
H -4.4062871853 1.4724725550 -5.4041024200
H -4.2543051460 -0.2803214871 -3.6371995937
