52
CONF514
C -1.6929298163 0.2444948692 -3.5523777964
C -1.4031609408 -1.2470932104 -3.7204472716
C -0.8942265102 -1.9144254878 -2.4385960723
C 0.4792822525 -1.4111836431 -1.9935755010
C 1.0936480544 -2.1641681124 -0.8031768864
C 2.4806203163 -1.5918277151 -0.4702200622
C 3.2031528568 -2.2912956234 0.6789661933
C 0.1685366063 -2.1729288250 0.4022666962
O -0.1212745237 -0.7855126243 0.7530083235
P -0.3441186072 -0.3313127879 2.2674515096
O 0.2091502310 -1.2289623891 3.2950305037
O 0.1785030062 1.1956092726 2.2153077991
C 1.4751184857 1.4562429269 1.7609028353
C 2.5776270037 0.9402446485 2.4296077435
C 3.8482702274 1.2361571730 1.9437709701
C 4.0064912325 2.0407214117 0.8190907752
C 2.8858898498 2.5592035020 0.1743934765
C 1.6091129486 2.2662714437 0.6417626385
O -1.9179568172 -0.0860368326 2.4754078810
C -2.7271526287 0.8125468554 1.7815243479
C -2.4873375553 1.2094723228 0.4698012766
C -3.3806399531 2.0898310379 -0.1357056411
C -4.4966897164 2.5587460402 0.5489904979
C -4.7223672765 2.1425447572 1.8582733630
C -3.8380064957 1.2700584190 2.4808061317
H -2.1231764971 0.6697613878 -4.4641879372
H -2.4080339338 0.4058530705 -2.7372536226
H -0.7858646524 0.8115325795 -3.3208995966
H -0.6694630421 -1.3945074839 -4.5240170769
H -2.3203699808 -1.7546907177 -4.0424448366
H -0.8463300929 -3.0013838790 -2.5914160310
H -1.6334633219 -1.7417824305 -1.6447425434
H 1.1766349381 -1.4841124583 -2.8392062252
H 0.4252217513 -0.3476405080 -1.7311157102
H 1.2121626088 -3.2238904102 -1.0816969250
H 2.3795752363 -0.5231454443 -0.2439386515
H 3.0928384588 -1.6552039523 -1.3784769061
H 2.7083008881 -2.1166772885 1.6396256139
H 3.2574519633 -3.3740895528 0.5166505054
H 4.2262512122 -1.9149531099 0.7718544143
H 0.6202993987 -2.6723487381 1.2633377681
H -0.7843696616 -2.6613028240 0.1742683172
H 2.4323183253 0.3132962079 3.3024236872
H 4.7182211140 0.8344043219 2.4530662206
H 5.0002566725 2.2675686704 0.4480811788
H 3.0035832343 3.1907737668 -0.7001082632
H 0.7196629002 2.6519010525 0.1555095182
H -1.6272203460 0.8375614037 -0.0732006062
H -3.1966585083 2.4060494178 -1.1577424702
H -5.1860763015 3.2427119725 0.0660335384
H -5.5897144645 2.5004899589 2.4034134103
H -3.9915791341 0.9364273782 3.5008159852
