49
CONF19
C -0.0966706550 2.0165884293 4.2611604536
C 0.4761939309 2.4877218222 3.0819408967
C 0.6612435664 1.6339184750 1.9995289310
C 0.2921548944 0.2954182652 2.1181616459
C -0.2810439383 -0.1908353176 3.2931748649
C -0.4773930395 0.6798612158 4.3599591556
N 0.5109294511 -0.5655102512 1.0055366332
C 1.7639463969 -0.8562792257 0.4937760348
O 2.7669290520 -0.1891079782 0.6832510155
C 1.6340513371 -2.1403789165 -0.2940989657
C 0.2573357139 -2.6567760460 0.0707076029
O -0.2796437951 -3.6785633456 -0.3119332465
N -0.3620308929 -1.6708168418 0.8295195769
C -1.7633475477 -1.4149090139 0.7757506028
C -2.2376264121 -0.2037177213 0.2703506231
C -3.6097613022 0.0132596827 0.2125918935
C -4.4994397756 -0.9698545060 0.6423237298
C -4.0113639182 -2.1745343952 1.1421575926
C -2.6403175335 -2.3996602883 1.2248100018
C 1.6162471807 -1.8665208651 -1.8196100842
C 2.9328334524 -1.2882927441 -2.3195904624
S 2.6832977889 -0.2439196815 -3.8370275882
O 1.7193957283 -1.0077384287 -4.7455052627
C 1.7007384944 1.0562159524 -3.0147096417
C 0.3392381297 1.1334808661 -3.2766241776
C -0.4125234770 2.1221312754 -2.6429734979
C 0.2021132924 3.0200681914 -1.7739849426
C 1.5752028856 2.9408481394 -1.5396655791
C 2.3357695259 1.9569419754 -2.1636430831
H -0.2513517899 2.6892891066 5.0983292146
H 0.7678221791 3.5294326731 2.9947305241
H 1.0816296899 1.9948953019 1.0680708835
H -0.5681491051 -1.2334970210 3.3731762916
H -0.9255928466 0.3062650887 5.2750094966
H 2.4336476611 -2.8383070530 -0.0300364503
H -1.5442279525 0.5555069397 -0.0762683628
H -3.9830481129 0.9543518278 -0.1785154825
H -5.5690486364 -0.7945172568 0.5922843244
H -4.6982623850 -2.9411750054 1.4856929210
H -2.2498599666 -3.3235411830 1.6348453116
H 1.3875605953 -2.8050686505 -2.3295414880
H 0.7875121348 -1.1775257759 -2.0232552170
H 3.4156391351 -0.6278080700 -1.5921591324
H 3.6429380341 -2.0675392517 -2.6126959753
H -0.1187943814 0.4251378789 -3.9599296762
H -1.4798274398 2.1875207441 -2.8300879046
H -0.3865836437 3.7878328528 -1.2819867595
H 2.0563073990 3.6473570008 -0.8704623140
H 3.4052298973 1.8923522088 -1.9828738202
