46
CONF22
C 2.0481205954 3.3541359042 1.0935132553
O 2.7372645164 2.4537546226 1.9889918261
C 2.3169629150 1.1695847221 2.0337466937
C 3.2214621577 0.1833840001 2.3703167045
N 2.9095469689 -1.1338228306 2.4956929670
C 1.6870074222 -1.5145055376 2.2755570414
N 0.7190635803 -0.6116014093 1.9346989551
C 0.9813458294 0.7511540896 1.8131138994
N -0.1507778379 1.3855641565 1.5098551515
C -1.0498280983 0.3775509100 1.4383833218
N -0.5925648308 -0.8611494722 1.6701049114
N -2.3850338235 0.5797467836 1.1136446776
S -2.7289360726 1.5479315129 -0.2904786084
O -2.5239109862 2.9326187030 0.0948036348
O -4.0158434683 1.0542540983 -0.7738387995
C -1.3775356771 1.0428538618 -1.4179319264
C -0.4732072282 1.9344060168 -2.0147869108
C 0.6823938657 1.4376897919 -2.6161256030
C 0.9406776667 0.0742549693 -2.6296163463
C 0.0195039247 -0.8242995043 -2.1168409026
C -1.1578372157 -0.3446986811 -1.5437995465
O -2.1420164888 -1.1551419053 -1.0866842619
C -1.8829562538 -2.5466726400 -0.9236732796
C -3.1616326070 -3.1246578821 -0.3532955985
F -2.9917981672 -4.4756956436 -0.2217331586
F -3.3944328663 -2.6067528708 0.8941519327
C -0.6992722650 3.4370756611 -2.1186191776
F -1.9739409424 3.7331751745 -2.4232253255
F -0.3423103257 4.1060588029 -1.0069056251
F 0.0601666100 3.9498166077 -3.1249396873
O 1.2643937010 -2.7779708155 2.3412397410
C 2.2642042435 -3.7443295320 2.7302187512
H 1.9770072061 2.9157964503 0.0918341856
H 2.6655243788 4.2524249911 1.0632296602
H 1.0457771000 3.5863556893 1.4572467247
H 4.2544726980 0.4606103344 2.5591596630
H -2.8905791394 -0.3006527351 1.0472413127
H 1.3762331393 2.1233190489 -3.0838143691
H 1.8580594392 -0.2947565144 -3.0752357839
H 0.2128523397 -1.8884356186 -2.1678515323
H -1.6821403792 -3.0326718252 -1.8873211666
H -1.0593221386 -2.7130430770 -0.2170466266
H -4.0474756707 -2.9307664119 -0.9702747113
H 3.0836115547 -3.7585512359 2.0069976873
H 2.6591590131 -3.5049457475 3.7207001079
H 1.7385409236 -4.6983950974 2.7425393352
