48
CONF23
C -1.1293524527 -0.4185278699 -2.9457213006
Si -2.0098808119 0.3259084648 -1.4994279850
O -3.4641363625 0.8688587391 -2.0674702769
O -2.2771585552 -0.7964336249 -0.3360703337
Si -1.9615187126 -1.1218036638 1.2549126466
C -3.0738622543 -2.5295554778 1.7472240042
C -2.2166034413 0.3964803298 2.3005129623
O -0.3898366553 -1.5975784028 1.4180566112
Si 0.8181224005 -2.1980253894 0.4653090044
C 2.0846339171 -2.9661387672 1.5937868493
C 0.1322340236 -3.4192967934 -0.7618043368
O 1.4962065804 -0.9602826452 -0.3906603932
Si 2.2299535031 0.4950900414 -0.1224304135
C 2.0728168982 0.9857291414 1.6704671759
C 3.9998406107 0.3719705031 -0.6782852625
O 1.4898299492 1.6105504948 -1.0881465548
Si 0.1260891319 2.5378555327 -1.1010730457
C 0.1678938107 3.7993964391 0.2664481257
C 0.0063443343 3.3218511467 -2.7846970775
O -1.1851357838 1.5703545523 -0.8189683909
H -1.6509620760 -1.3167217265 -3.2924186591
H -0.1097006994 -0.7000224703 -2.6643021238
H -1.0763599602 0.2879935437 -3.7801562772
H -4.0742304974 1.2437799572 -1.4214161332
H -2.9028015241 -3.3995848186 1.1034387072
H -2.8843649697 -2.8298534663 2.7833748291
H -4.1279734231 -2.2439827815 1.6625221207
H -2.0136840569 0.1766107101 3.3544441646
H -1.5498567814 1.2043297717 1.9820618664
H -3.2492997456 0.7534575734 2.2199432913
H 1.6534654370 -3.8148537760 2.1359787478
H 2.4509436946 -2.2440378075 2.3312454997
H 2.9428033713 -3.3309971888 1.0188510858
H -0.3095590712 -4.2766451467 -0.2421015234
H 0.9217993516 -3.7921899539 -1.4232850557
H -0.6440554373 -2.9576491132 -1.3803504341
H 2.6197104350 0.2890269468 2.3151623739
H 2.4840901520 1.9884316896 1.8312109101
H 1.0245859623 0.9903024396 1.9881462308
H 4.5165985246 1.3302542898 -0.5582892356
H 4.5370118468 -0.3810570553 -0.0912671891
H 4.0543212546 0.0837801407 -1.7338874915
H 0.1540321535 3.3180343108 1.2496663671
H -0.7022124053 4.4620402498 0.2004105939
H 1.0706187115 4.4161663394 0.1999941747
H 0.0235765151 2.5658578316 -3.5767588149
H -0.9216428159 3.8962047702 -2.8789104895
H 0.8466662146 4.0049222011 -2.9508295368
