27
CONF191
C 2.7105316739 -0.3980676144 0.3687160516
C 3.9298716924 -0.5640639917 -0.5376569158
C 4.9484001013 0.5565919157 -0.3620419459
O 4.4116254526 1.8465151380 -0.6654471255
C 1.6750967606 -1.4883995356 0.0932079887
C 0.4771757162 -1.5086193750 1.0161448058
C -0.4821833791 -0.2738096348 1.0053076115
C -0.9797356973 0.1700378195 -0.4053169937
C -2.2106398186 1.1322046454 -0.3929512924
F -3.3232419791 0.4784077708 -0.0451831799
F -2.3794476260 1.6334658493 -1.6263682592
F -2.0091000500 2.1451969961 0.4597599020
F -1.3231171647 -0.9167618396 -1.1369830166
F 0.0341243045 0.8116514030 -1.0410976408
F 0.1563985134 0.7784566263 1.5743904456
F -1.5682290210 -0.5710482746 1.7622073990
F 0.8856349431 -1.6316401574 2.3186443642
F -0.2914464262 -2.6068169539 0.7368634140
H 3.0242522259 -0.4456592241 1.4177863036
H 2.2836116802 0.5949206421 0.2094712756
H 4.4264622529 -1.5230871992 -0.3341998306
H 3.6106839766 -0.5992997535 -1.5900109414
H 5.8431375127 0.3519054927 -0.9695795667
H 5.2666073396 0.6147865011 0.6848069271
H 2.1302902838 -2.4796526544 0.2128398857
H 1.3096469987 -1.4314963582 -0.9377502134
H 4.1959273041 1.8647698385 -1.6045176074
