48
CONF40
C -3.8629482897 -2.6414216245 -1.3456311676
C -3.1645050912 -1.5224386579 -2.1044699390
C -1.9038731401 -1.0777770444 -1.3631467156
N -1.2135690260 -0.0268110472 -2.1100129490
C -0.8834135668 -0.4658295775 -3.4814132112
C -2.1478124698 -0.9047829792 -4.1995070682
N -2.7762735135 -1.9864730298 -3.4389069588
C -0.2569575158 0.7168947562 -1.4316547794
C 0.2400537573 1.9291441589 -1.9782612478
C 1.1540832695 2.7144211259 -1.3358146082
C 1.6298541167 2.3519941416 -0.0660639185
C 1.1363231576 1.1695936820 0.5142481902
C 0.2144706779 0.3668951334 -0.1641404981
N 1.5948877474 0.8084915299 1.7866982894
C 2.4790862350 1.5942377626 2.4523206468
C 2.9759876120 2.7605743925 1.9472873451
C 2.5797246892 3.2112879379 0.6317179206
O 3.0144783000 4.2641604375 0.1158672862
C 3.9362366883 3.5223309433 2.8056134518
O 4.2593053896 3.1420943583 3.9113961431
O 4.4061795190 4.6472198460 2.2628628283
C 1.1268502129 -0.3821436900 2.4233210357
C 1.5995962264 -1.6295114528 2.0182260582
C 1.1797676968 -2.8027234820 2.6206322954
C 0.2700458765 -2.6917881396 3.6615052094
C -0.2230038224 -1.4745181270 4.1056591208
C 0.2120859142 -0.3181214622 3.4702157736
F -0.1467751261 -3.8193384267 4.2617400415
F 2.4826494297 -1.6944679248 1.0126424097
F -0.2535943549 2.3543919680 -3.1633521918
H -4.7724711951 -2.9536623047 -1.8687859802
H -3.2059739519 -3.5122486821 -1.2569507926
H -4.1525611342 -2.3118273122 -0.3431844224
H -3.8356303920 -0.6418798411 -2.1585353132
H -2.1946460155 -0.6812302362 -0.3844232333
H -1.2554342351 -1.9612521321 -1.2094744893
H -0.1776331002 -1.3129884493 -3.4344571763
H -0.4103566217 0.3499891618 -4.0265382378
H -2.8063788642 -0.0246108044 -4.3216109796
H -1.8792739760 -1.2735660593 -5.1956857578
H -3.5984420175 -2.3216128079 -3.9299566772
H 1.4958408816 3.6427394568 -1.7795476344
H -0.1245216310 -0.5510764167 0.2951510749
H 2.7916756352 1.2488529014 3.4330488483
H 3.9926174807 4.7421514115 1.3544898969
H 1.5581007908 -3.7647596632 2.2977980254
H -0.9295097333 -1.4425229925 4.9258979575
H -0.1543438377 0.6539190607 3.7831853311
