47
CONF89
C -3.3000761334 1.2856281291 4.2488314768
C -3.6910083713 1.4013742188 2.7911553237
C -4.3049560051 0.1732257702 2.1697026945
C -2.8450640862 0.5615864329 1.8357294969
C -2.4773791406 1.0331035942 0.4960963793
O -3.1562071516 1.6452638720 -0.3025411249
O -1.1801868498 0.6756177038 0.2245796201
C -0.6677700949 1.1285471786 -1.0551220720
C -1.3288019888 0.3919319835 -2.1401848951
N -1.8196107006 -0.2004708960 -3.0015863135
C 0.8233589996 0.8982703640 -1.0568167394
C 1.6857059280 1.9919948671 -1.0646913667
C 3.0613367486 1.7739939070 -1.0315501201
C 3.5774725411 0.4842617443 -0.9908558824
C 2.6979836144 -0.5999859172 -0.9924603003
C 1.3225301256 -0.4027886910 -1.0278295150
O 3.1261582328 -1.9052849054 -0.8897979812
C 4.3579920808 -2.2573870891 -1.4279890590
C 5.1949740314 -3.0383427713 -0.6400966638
C 6.4040973989 -3.4815381495 -1.1711912736
C 6.7704387499 -3.1397679581 -2.4709567944
C 5.9162861456 -2.3569419812 -3.2468635883
C 4.7011839785 -1.9139668046 -2.7331136992
C -5.3627313256 0.2581717872 1.1632370756
C -6.3046393685 -0.6627070933 0.9582434182
Br -7.6640935533 -0.4213991912 -0.3567519315
Br -6.4330283544 -2.3015864909 1.9193238853
C -4.1560473286 2.7837662965 2.3991287798
H -2.4855610701 1.9812547582 4.4767433823
H -2.9738970328 0.2726919366 4.4990663589
H -4.1564158738 1.5411401355 4.8820542303
H -4.3520819085 -0.6985559330 2.8148448102
H -2.0940613508 -0.0656442120 2.3029004781
H -0.8939038503 2.1922613252 -1.1858152737
H 1.2876717786 3.0009034323 -1.0910034623
H 3.7415852243 2.6193634082 -1.0281510563
H 4.6486713663 0.3196320877 -0.9559257676
H 0.6592095920 -1.2623293426 -1.0268810429
H 4.8950523444 -3.2912724946 0.3714546303
H 7.0624974293 -4.0921723850 -0.5613811529
H 7.7148165870 -3.4837062984 -2.8797558536
H 6.1907637303 -2.0947532137 -4.2638673127
H 4.0273558504 -1.3121301358 -3.3342701248
H -5.4046619262 1.1374292944 0.5296761300
H -4.3826986789 2.8821850969 1.3383531880
H -3.3786835237 3.5130648076 2.6495914549
H -5.0535759104 3.0360685156 2.9737842542
