47
CONF53
C -4.4069037464 -1.9725382312 0.5642486125
C -3.8455630849 -0.9986006547 -0.4770430688
C -4.2961601022 -1.4212623178 -1.8812877330
C -2.3174778621 -0.8054109829 -0.4660305732
C -1.4576256119 -2.0651844718 -0.7184678745
C -0.0571279661 -1.7405296907 -0.1302839890
C -0.1540023301 -0.3014792088 0.4149855814
C 0.8188548680 0.0181153090 1.5518621028
C 2.2496643135 -0.0752143122 1.0909989899
C 3.0539932547 -1.1677549371 1.4155132230
C 4.3618943738 -1.2687788993 0.9495002963
C 4.8676110090 -0.2553560318 0.1470100855
Cl 6.5171501684 -0.3670016005 -0.4464570136
C 4.0946728576 0.8495892454 -0.1914409985
C 2.7913191105 0.9297172385 0.2835710586
C -1.6491991585 -0.1633965093 0.7710480280
O -1.9490078688 -0.8504663019 1.9967600603
C -2.1127053091 1.2652885195 1.0831071485
N -1.8525963887 2.2207261873 0.0218981296
C -2.6684985830 2.6292291147 -0.9769535879
N -2.0451821694 3.4897517833 -1.7648090758
C -0.8156086743 3.5754545641 -1.1884369155
N -0.6470764963 2.8277937962 -0.1038590249
H -3.9901958531 -2.9779855690 0.4378379294
H -4.2088500999 -1.6411570614 1.5847178970
H -5.4909595737 -2.0601549960 0.4368441397
H -4.2949303957 -0.0145872763 -0.2745893466
H -5.3883255068 -1.4452560914 -1.9482774142
H -3.9291054390 -2.4255863271 -2.1197384976
H -2.0981822636 -0.1070461595 -1.2873797151
H -1.8931416021 -2.9420917597 -0.2263629611
H -1.4105575188 -2.3041031732 -1.7835338169
H 0.7415145014 -1.8321756501 -0.8698523460
H 0.1990301771 -2.4340362208 0.6810855549
H 0.0467334381 0.3964337909 -0.4066535738
H 0.6435599023 -0.6676193288 2.3873795908
H 0.6259255930 1.0346686697 1.9137117250
H 2.6572526887 -1.9568956754 2.0483194769
H 4.9811593392 -2.1197517117 1.2085396297
H 4.5100271690 1.6350273811 -0.8123149553
H 2.1797213635 1.7913778861 0.0280286795
H -1.6113895719 1.6151546325 1.9894364100
H -3.1894141814 1.2564387886 1.2787933176
H -3.6892929656 2.2843696490 -1.0789896173
H -0.0240196436 4.2084285800 -1.5675595438
H -3.9230045626 -0.7349121385 -2.6491513453
H -1.7757804490 -1.7901032817 1.8654961632
