50
CONF43
C 1.9243634268 -1.2695954262 -1.5288171095
C 2.4340216604 -0.8247185643 -0.1806203195
C 1.5332126575 -0.7272435347 0.8841453726
C 1.9978537892 -0.4096719580 2.1745954104
C 3.3330114665 -0.2375413408 2.4398127658
C 4.2783446197 -0.3333792656 1.3984417609
C 3.8166941701 -0.5662606243 0.0636478159
C 4.8673057354 -0.4805124857 -0.9324976368
N 6.1499719147 -0.4013120102 -0.5940660766
C 6.4542090512 -0.3165441807 0.7226617990
N 5.5950307246 -0.2067531041 1.7261966285
N 7.7891967583 -0.3529982799 1.0220898932
N 4.6230673425 -0.4650760342 -2.2675189547
C 0.0515761889 -0.9469367985 0.7063182787
N -0.5265052578 0.1071214103 -0.1268536605
C -1.8982356635 0.1789670068 -0.3320895802
C -2.4425403224 1.3753652930 -0.8320308457
C -3.8070822863 1.4552770009 -1.0995581389
C -4.6479786886 0.3508142428 -0.8857034880
C -4.0962551254 -0.8294730477 -0.3749962056
C -2.7293285692 -0.9256923355 -0.0947394975
O -4.9827687389 -1.8462892463 -0.1777753891
C -4.4731311671 -3.0803514175 0.3401427472
O -5.9904067951 0.4236766015 -1.1927142523
C -6.7946871572 0.8530811247 -0.0772375688
O -4.4280551231 2.5699942070 -1.5787122123
C -3.6165618937 3.7248022812 -1.8211394396
H 1.7352289187 -0.4221933422 -2.1997397322
H 2.6246379123 -1.9519165267 -2.0150442131
H 0.9717344123 -1.7887859269 -1.4267870316
H 1.2758433836 -0.3283325810 2.9826743583
H 8.0543113938 -0.0371623587 1.9417065742
H 8.4297539700 -0.1412778007 0.2736725593
H 3.7167309145 -0.2141436571 -2.6189283688
H 5.4104602653 -0.2270542663 -2.8519406240
H -0.1383103704 -1.9208678629 0.2358389888
H -0.4252301900 -0.9821766866 1.6988524440
H -0.0818477197 1.0052592055 0.0048162716
H -1.7865671124 2.2197053223 -1.0061813089
H -2.3192466577 -1.8426592862 0.3022863021
H -5.3346145174 -3.7445609444 0.4168078708
H -4.0284002226 -2.9395724518 1.3323809459
H -3.7315259149 -3.5175866791 -0.3387271660
H -6.7014530904 0.1494071991 0.7586684779
H -6.4954182913 1.8561366474 0.2501591688
H -7.8294904132 0.8741136484 -0.4262819992
H -3.1388251729 4.0729951288 -0.8977082703
H -2.8504247259 3.5169315735 -2.5774059531
H -4.2982475592 4.4908533911 -2.1919781817
H 3.6907002194 -0.0377270210 3.4444622756
