53
CONF1
C 1.5556487731 -1.4929032531 0.7794177861
C 0.0801238831 -1.1313101935 0.8192896817
N -0.2705963380 -0.3072462607 -0.3445169032
C 0.5386418679 0.9201138925 -0.2972668495
C 2.0184612114 0.5765799305 -0.3331577656
N 2.3832652324 -0.2826219509 0.8008611714
C 3.8202108605 -0.5884937628 0.8044752711
C 4.6342995032 0.4848083943 1.5108354223
O 4.4241015442 0.3730797180 2.9152769030
C 4.1438824644 1.5810019120 3.6274345915
C 2.6566410783 1.6880501315 3.9195597132
O 1.8835933747 1.7830531153 2.7350983357
C -1.7035740113 0.0182941083 -0.3652296567
C -2.5655061897 -1.2337168306 -0.3051699124
C -3.6166656918 -1.3161971399 0.6056793380
C -4.4392097789 -2.4395577973 0.6417424119
C -4.2114789092 -3.4971749739 -0.2313075546
C -3.1574552693 -3.4245226486 -1.1403217378
C -2.3435643123 -2.2995014242 -1.1801664622
C -2.0746647742 0.8063891630 -1.6117607364
C -1.4889624853 0.5318451538 -2.8487772924
C -1.8821804846 1.2142841887 -3.9933927897
C -2.8775734582 2.1797935963 -3.8956048301
C -3.4758715205 2.4756730159 -2.6779764407
C -3.0644629817 1.7848180156 -1.5430827871
Cl -3.3791951665 3.0482683923 -5.3363162861
H 1.7548076889 -2.1005849134 -0.1245906886
H 1.8019516523 -2.0987218226 1.6589842676
H -0.5112953091 -2.0513545155 0.8050843797
H -0.1397672460 -0.6008421852 1.7677629068
H 0.3198490304 1.5089989466 0.6137149347
H 0.3006028565 1.5443906564 -1.1637221498
H 2.5979539594 1.5053573105 -0.2799945896
H 2.2558447426 0.0783066658 -1.2933051381
H 3.9789814695 -1.5297988128 1.3428501554
H 4.2029316593 -0.7318003975 -0.2236004939
H 4.3546915740 1.4839173187 1.1500517870
H 5.7024404903 0.3324340539 1.2874694309
H 4.4819754992 2.4569222301 3.0557499424
H 4.7090931503 1.5454429412 4.5690975697
H 2.4687071110 2.5946798429 4.5093874927
H 2.3510107013 0.8209507633 4.5284429436
H 2.0360916036 0.9617400701 2.2124671098
H -1.9710935438 0.6415566788 0.5121563650
H -3.7911784363 -0.4954137695 1.2962094364
H -5.2541371080 -2.4887427323 1.3570002961
H -4.8488573473 -4.3750179137 -0.2037746899
H -2.9718987860 -4.2483754553 -1.8224349052
H -1.5197467596 -2.2464789828 -1.8844140097
H -0.7024079268 -0.2132001386 -2.9089546388
H -1.4215591481 1.0034158280 -4.9516747264
H -4.2452755743 3.2365262100 -2.6183269122
H -3.5276238269 2.0128855194 -0.5869861011
