47
CONF7
C 4.8182815646 -1.9235689527 1.0091709711
C 4.4275522879 -0.9486897111 -0.0280666615
C 3.2450536441 -0.3387374590 -0.3598402839
C 3.5800775744 0.5113372843 -1.4627531491
N 4.8560286944 0.4114817138 -1.7699741329
O 5.3973877385 -0.5036909867 -0.8466156220
C 2.7087694489 1.3829595072 -2.2647518376
C 3.1342106062 2.6678202213 -2.6205775264
C 2.3137600786 3.4835067964 -3.3928284695
C 1.0667941244 3.0260802517 -3.8134858350
C 0.6413192713 1.7454478240 -3.4639951052
C 1.4565021631 0.9249163625 -2.6931644852
C 1.9692047350 -0.5356407485 0.3526582990
O 1.6539123994 -1.6212527500 0.8478574006
N 1.1715032287 0.5618009925 0.4533935238
C -0.1447653825 0.4890263574 1.0017458080
C -1.2421744868 -0.4151348826 0.3370203939
N -1.3935152254 -1.0982717461 1.6260761501
C -0.4157487397 -0.3538160676 2.2728769401
O -0.0227209580 -0.3581985480 3.4160355728
C -2.7277567197 -1.4296881194 2.0655233833
C -3.6504222492 -0.2510830943 1.5768557242
S -2.9034553856 0.2655840762 -0.0685482742
C -5.1032497094 -0.6534355084 1.3470010954
C -3.5652666236 0.8972416930 2.5823006730
C -3.1477124207 -2.7759371922 1.4951098532
O -2.7573565227 -3.2266452504 0.4411772305
O -4.0207302054 -3.3944774715 2.3062129986
H 5.8056629183 -1.6772277351 1.4076388722
H 4.8621688452 -2.9310090062 0.5802237176
H 4.0800080760 -1.9270088546 1.8114427686
H 4.0995573557 3.0258350084 -2.2783443215
H 2.6465264968 4.4812694081 -3.6605554069
H 0.4266849452 3.6661865312 -4.4122441324
H -0.3260863259 1.3822630647 -3.7958629516
H 1.1286659603 -0.0773752765 -2.4344173443
H 1.4791073186 1.4384061647 0.0584337161
H -0.5253667667 1.5022659593 1.1580402207
H -0.8860819177 -1.0439554457 -0.4824278104
H -2.7572552004 -1.4760422832 3.1587312118
H -5.6719640332 0.2081783132 0.9864432596
H -5.5466205519 -0.9787617073 2.2935174346
H -5.1978985114 -1.4593384731 0.6144427308
H -4.0276928825 0.5909573008 3.5277464975
H -2.5317650408 1.1930044359 2.7817249240
H -4.1003043829 1.7692570935 2.1977515743
H -4.3028299263 -4.2258388885 1.8847256101
