65
CONF533
C -0.6574185661 3.9304219972 0.2121831140
C 0.0273201745 2.6625064652 0.7148229050
C -0.4375317433 2.2195179660 2.1202839350
C -0.1444425109 3.2579762437 3.1992248217
C 0.2565941194 0.9098706496 2.4270541910
O 1.2810211629 0.7932991415 3.0741258960
O -0.3829011593 -0.1195760264 1.8435254408
C 0.1817043138 -1.4614677863 2.0100298735
C -0.2348311838 -2.0491630326 3.3502846133
C -1.7577229722 -2.1844628881 3.5194582536
C -2.4299707503 -2.5183081999 2.2242656715
C -1.8284039704 -2.5680705847 1.0202546206
C -0.3446017921 -2.2958857105 0.8460732590
C -0.0392544163 -1.6983703572 -0.5471532794
C -0.5916290827 -2.6212135130 -1.6575710363
C -2.0294841138 -2.9629583384 -1.3952837788
C -2.5794021680 -2.9202762888 -0.1717905474
C 0.2191725154 -3.9127013838 -1.8737987931
C 1.4576723350 -1.3901220051 -0.7124122738
C 1.8697493924 -0.8828652959 -2.0993690536
C 1.3852069864 0.5203920998 -2.4215457166
C 1.5103172693 0.8849004465 -3.8848297559
C 1.1954640371 2.3615910204 -4.0885708095
C 2.1888321656 3.1870047273 -3.2946209491
C 2.4683621924 2.6927424209 -1.8955809944
O 3.0246085232 3.3905217750 -1.0666077157
O 2.1754965316 1.4257402983 -1.5621964965
O -0.1106302882 2.6994617113 -3.5912345670
C -2.4108612274 -0.9507034639 4.1704921963
H -1.7468264941 3.8130790191 0.2070995737
H -0.4106801918 4.7990310795 0.8294870590
H -0.3364154108 4.1491580205 -0.8113884998
H -0.1645681934 1.8434756375 0.0120734581
H 1.1134281078 2.8110961875 0.7384597449
H -1.5153238787 2.0188445304 2.0747225443
H -0.3939597975 2.8712817460 4.1916812413
H 0.9147617130 3.5329804974 3.1946480980
H -0.7365792949 4.1601208699 3.0287614536
H 1.2700108146 -1.3765068748 1.9697165516
H 0.2303126835 -3.0408431983 3.4054067880
H 0.1874901216 -1.4528005578 4.1650798768
H -1.9364213344 -3.0235931139 4.2084672570
H -3.4995881873 -2.7247600998 2.2766290737
H 0.1876369668 -3.2572395050 0.9130857700
H -0.6024208109 -0.7582447002 -0.6202583049
H -0.5622458294 -2.0593239438 -2.6013541932
H -2.6288145271 -3.2781458961 -2.2474122639
H -3.6294578038 -3.1742297639 -0.0359681608
H -0.2560350412 -4.5254512859 -2.6464834159
H 1.2434746947 -3.7018640406 -2.1953031887
H 0.2622236892 -4.5099065299 -0.9573620838
H 1.7561436306 -0.6380929515 0.0269243800
H 2.0363724416 -2.2936668453 -0.4812212127
H 2.9630856067 -0.8873176451 -2.1855947885
H 1.4977057116 -1.5490418508 -2.8845139354
H 0.3460254127 0.6578507590 -2.1015884052
H 2.5233539379 0.6720360590 -4.2495251007
H 0.8120158732 0.2603715457 -4.4533815615
H 1.2688600172 2.6240887474 -5.1526162072
H 3.1580476033 3.1788782283 -3.8091359580
H 1.8756263109 4.2322584341 -3.2259131615
H -0.7585991545 2.1601333414 -4.0632203573
H -3.4801599101 -1.1241781938 4.3306055203
H -2.3013473906 -0.0656778697 3.5379596396
H -1.9495671832 -0.7436012260 5.1419200573
