52
CONF8
C 0.0193159423 -2.3899804738 -3.0207293728
C 0.9205638434 -1.4896746021 -2.2275566086
C 0.8662143695 -1.3454198619 -0.8960674247
C -0.1151824034 -2.0072857700 -0.0123090863
C -0.1870864528 -1.6955690748 1.4997334479
C 0.2683715450 -3.0587218855 0.9968560171
C 1.7126538728 -3.4842417856 1.1123491992
C -0.7205460973 -4.1809353815 1.2276128676
C 0.7202324648 -0.6986114079 2.0925153136
O 1.9038199192 -0.5494210037 1.8730199942
O 0.0107820047 0.1089224810 2.9395499808
C 0.7049130948 1.2632916614 3.4551514988
C 0.3911214980 2.4890646765 2.6363474835
C 0.1761458284 2.3868891340 1.2646284603
C -0.1166876940 3.5295897344 0.5278475482
C -0.1599779733 4.7827291063 1.1304591577
C 0.0815302789 4.8796009177 2.4957973589
C 0.3415976503 3.7410351337 3.2516310742
O -0.3071130184 3.4907756571 -0.8388939092
C -0.9846173697 2.4345106378 -1.4152947574
C -0.6248004737 2.1146066133 -2.7213515600
C -1.3187786592 1.1179036749 -3.3960132321
C -2.3550297667 0.4304706947 -2.7707679613
C -2.7041778232 0.7611121184 -1.4647852633
C -2.0307182337 1.7673365101 -0.7803751578
C 1.9453374323 -0.7534415341 -3.0408767756
H -0.7562472798 -2.8623565926 -2.4154288569
H -0.4655111700 -1.8343082838 -3.8324089880
H 0.6078688269 -3.1869813049 -3.4934930350
H 1.6029674103 -0.7034329579 -0.4213354270
H -1.1076417929 -2.1301767755 -0.4398040405
H -1.1912697951 -1.6517190854 1.9071508983
H 1.9149757070 -3.8784458406 2.1142991156
H 2.4037070700 -2.6650476887 0.9220408703
H 1.9084847040 -4.2825074551 0.3876483082
H -0.5512566649 -4.9873621501 0.5050737323
H -0.6048386929 -4.5990310844 2.2339922437
H -1.7539531753 -3.8381146690 1.1177184150
H 0.3528580615 1.3904592745 4.4822895538
H 1.7818304392 1.0618040705 3.4620325955
H 0.2188370350 1.4271641578 0.7626624227
H -0.3850638775 5.6549089005 0.5271842851
H 0.0434541316 5.8512375188 2.9776231432
H 0.5001973746 3.8243779569 4.3228343480
H 0.1889115290 2.6572115304 -3.1899654183
H -1.0430511856 0.8756801717 -4.4177559891
H -2.8898620546 -0.3520689831 -3.2982292535
H -3.5200695378 0.2417628733 -0.9716939075
H -2.3140367785 2.0329734813 0.2315999537
H 2.5898502959 -0.1323819110 -2.4142614578
H 1.4554371611 -0.1048796293 -3.7783589556
H 2.5755403741 -1.4533006797 -3.6046283655
