43
CONF16
C -1.8185841827 1.9737913456 2.4990463529
Si -1.8682428719 1.7417632711 0.6597525710
C -3.2904349639 2.6282690688 -0.1578511585
O -0.4154435858 2.3536887298 0.0944447859
O -1.9498240209 0.1361769573 0.3011074590
Si -1.5433973889 -0.8279513884 -0.9761691897
C -2.8615996333 -0.7118815494 -2.2877370059
C -1.3240100864 -2.5628270593 -0.3401719802
O -0.1434420453 -0.2430362872 -1.6339213098
Si 1.4788639776 -0.5709774166 -1.5083327903
C 1.8803737006 -2.0511994594 -2.5644078358
C 2.3873759703 0.9619421086 -2.0557035530
O 1.8450022764 -0.9525847775 0.0441234656
Si 2.0507684495 -0.2645702225 1.5386129152
C 0.7784421029 -1.0460619074 2.6623972257
C 3.7902877323 -0.5949692759 2.1082251226
O 1.8971500995 1.3740988658 1.4696552287
H -1.7959878366 3.0370836861 2.7585587920
H -0.9269132781 1.5039189694 2.9262286077
H -2.6981336997 1.5267076410 2.9730727720
H -3.2776560266 3.6962477319 0.0827291681
H -3.2426846970 2.5315294782 -1.2480027882
H -4.2507691840 2.2159939152 0.1694698232
H -0.1920624567 2.1006341450 -0.8101325557
H -3.8453030788 -0.9722197565 -1.8835119368
H -2.9230314835 0.3022889041 -2.6961429607
H -2.6460774596 -1.3905446602 -3.1197298296
H -1.1539408822 -3.2657100467 -1.1625482253
H -2.2185789749 -2.8890784212 0.2007353176
H -0.4717688249 -2.6240741556 0.3437070825
H 2.9532288211 -2.2685398729 -2.5408773072
H 1.3541330298 -2.9402250515 -2.2013833478
H 1.5896480758 -1.8853279101 -3.6068392672
H 3.4641187774 0.7689200805 -2.1107727008
H 2.0542842926 1.2887311779 -3.0465082586
H 2.2467457507 1.7862519629 -1.3481785849
H 0.9342788329 -2.1283725288 2.7336225285
H 0.8375159987 -0.6307723342 3.6740331055
H -0.2368480127 -0.8807920769 2.2847393670
H 4.5103950660 -0.1268865383 1.4291177233
H 3.9606690244 -0.1875249360 3.1098859758
H 3.9978258681 -1.6693518280 2.1368513657
H 1.0836267539 1.7574416172 1.0988053278
