34
CONF154
C -1.9083861925 -1.4958492047 2.4409779375
C -1.4608047390 -0.5445104065 1.5350442355
C -0.1033523854 -0.3533264754 1.2531645514
C 0.7992273248 -1.1803790726 1.9284581048
C 0.3912570086 -2.1478502468 2.8423874997
C -0.9669707006 -2.2879559537 3.0850142956
Cl -1.5000474150 -3.5030495832 4.2346193466
Cl 2.5320551142 -1.0478852472 1.6491106193
C 0.3209009317 0.6798993106 0.2346084188
C -0.2231123589 2.0706557870 0.6084033945
N 0.3153032268 3.1086198857 -0.2609857454
C -0.3296766495 3.8787436249 -1.1590235751
N 0.5283932927 4.6883851468 -1.7698135755
C 1.7154308746 4.3568298977 -1.1893081940
N 1.6377104370 3.4035191737 -0.2684730096
C -0.1265538511 0.2783216297 -1.1661728469
O 0.5640292102 -0.9712375736 -1.4827538372
C -0.1560683091 -1.9289644920 -2.0810940415
C 0.7514257898 -3.1496149741 -2.3202586022
F 1.1708716562 -3.6234104423 -1.1106480661
F 0.0190341758 -4.1289844474 -2.9231427819
F -1.2514918725 -2.3113699566 -1.3399357501
F -0.6666786139 -1.5228827057 -3.2938697326
H -2.9668236610 -1.6191958999 2.6370653022
H -2.2008674387 0.0619014560 1.0218785834
H 1.1172538521 -2.7733620509 3.3468520196
H 1.4110547561 0.7504379913 0.2263689870
H 0.0507420638 2.3010193201 1.6420801946
H -1.3118391596 2.1175605597 0.5180559002
H -1.3973266682 3.8141456402 -1.3257617581
H 2.6571924888 4.8269418691 -1.4436548193
H -1.2100776019 0.1360992255 -1.2163180848
H 0.1797735098 1.0166566034 -1.9122825996
H 1.6184222164 -2.8999084735 -2.9405919473
