46
CONF10
C -3.9062204007 -0.1519294252 -1.5957765168
C -2.5298338423 -0.1498995272 -2.2192810892
C -2.5359098153 0.1042274307 -3.7095499628
C -1.4983469473 -1.0842763089 -1.6207534659
C -0.5307782874 -1.8033587991 -2.4538515996
C -0.2765673464 -3.1097769739 -2.3797114119
Cl 0.8974794567 -3.8930418462 -3.4055904382
Cl -1.0574904824 -4.1908317907 -1.2576167075
C -1.3428632962 0.4216919675 -1.4446325763
C -1.5305940753 1.0039396873 -0.1011100814
O -2.0407246043 0.4596104801 0.8579507745
O -1.0631828925 2.2782896908 -0.0757306394
C -1.1729563456 2.9678886208 1.1916056957
C -0.1665120534 2.4866466808 2.2047146674
C 0.9901718274 1.8251206889 1.8039250542
C 1.9040947173 1.4009649366 2.7650487711
O 3.0795287721 0.7637323469 2.4101558653
C 3.0495714769 -0.1403763307 1.3595109054
C 2.0260881942 -1.0780863881 1.2306356532
C 2.0870265630 -2.0040267530 0.1943222905
C 3.1572263962 -2.0003702522 -0.6997357936
C 4.1758203013 -1.0623426722 -0.5495123082
C 4.1262394147 -0.1247470721 0.4795377614
C 1.7044544775 1.6597330840 4.1165344060
C 0.5543897352 2.3419692977 4.5042545781
C -0.3861041640 2.7429390222 3.5602597504
H -4.5274034888 -0.9025114373 -2.0960111302
H -4.3844815862 0.8252908531 -1.7282753842
H -3.8742241517 -0.3830038572 -0.5301265321
H -3.0778020972 -0.6985762948 -4.2217884300
H -3.0493604597 1.0480094801 -3.9211358676
H -1.5301437735 0.1640377551 -4.1302488295
H -1.8356528260 -1.5981382731 -0.7256244247
H 0.0300104768 -1.2456434559 -3.1980959998
H -0.5945578088 0.9167617728 -2.0549681995
H -0.9956262968 4.0172441742 0.9385558878
H -2.1893720721 2.8633959672 1.5821936294
H 1.1768873131 1.6248516950 0.7545362980
H 1.1981281895 -1.0818901253 1.9319311409
H 1.2945374893 -2.7386011720 0.0935753136
H 3.1965086251 -2.7273543920 -1.5039547902
H 5.0143786220 -1.0531016587 -1.2388223646
H 4.9095003689 0.6151036638 0.6077798580
H 2.4356692352 1.3211339885 4.8425835535
H 0.3822082718 2.5418546056 5.5571638612
H -1.2932104084 3.2503889245 3.8751286476
