51
CONF80
C 1.7575571434 -1.4438984615 1.0861283270
C 1.6555544400 -0.1383002165 1.8287509738
C 0.6162454134 0.0922428279 2.7511666234
C 0.5153300346 1.3168971217 3.4123742608
C 1.4263978976 2.3353661940 3.1640361969
C 2.4391689894 2.1296623699 2.2351787000
C 2.5669746463 0.9047394099 1.5724845194
C 3.6707689689 0.7554608870 0.5852981190
C 4.7967765283 -0.0245845648 0.8712306534
C 5.8360761921 -0.1310884485 -0.0485824146
C 5.7640311263 0.5403203265 -1.2681701922
C 4.6489435607 1.3221207030 -1.5599805397
C 3.6101205762 1.4310021464 -0.6377520105
C -0.4230628287 -0.9609758758 3.0255369223
O -1.1117560619 -1.3598215721 1.7982557384
C -1.9097770173 -0.4276009619 1.2371237255
O -2.2174424845 0.6172778408 1.7763240865
C -2.2894894710 -0.8491380378 -0.1310344272
C -3.2049599220 0.0540072355 -0.9450572429
C -1.7324291164 -0.0830491696 -1.3195927880
C -0.8563883210 1.1274430509 -1.0875764312
C -1.3282490613 -0.9016303358 -2.5246423676
C -4.2556067527 -0.5522336677 -1.7508807627
C -5.4464949856 -0.0145054340 -2.0248936153
C -6.4866551856 -0.6864676845 -2.8686579407
F -6.8121965544 0.0526347931 -3.9600261163
F -6.0682355403 -1.8893778605 -3.3121374383
F -7.6433786875 -0.8895781404 -2.1876292086
Cl -5.9624795739 1.5524626585 -1.4397145212
H 1.3968662328 -2.2817203136 1.6867562371
H 1.1475668378 -1.4152552295 0.1747482967
H 2.7849650672 -1.6500768061 0.7850502206
H -0.2981477918 1.4729596774 4.1148012300
H 1.3406094445 3.2867551112 3.6793674329
H 3.1514265933 2.9207290845 2.0189140384
H 4.8570047833 -0.5450658543 1.8231414145
H 6.7056835097 -0.7363097403 0.1890573991
H 6.5744930865 0.4563098458 -1.9854947186
H 4.5860359529 1.8497304380 -2.5069206950
H 2.7401863145 2.0405630214 -0.8658605657
H -1.1572538588 -0.6033026690 3.7511483124
H 0.0169213292 -1.8935804842 3.3862932934
H -2.3773551553 -1.9213172535 -0.2760017891
H -3.4535070951 0.9897503872 -0.4545259251
H -1.1902590581 1.7263752041 -0.2379850942
H 0.1774196416 0.8099960166 -0.9046706975
H -0.8622481701 1.7603695538 -1.9811083987
H -1.9077966707 -1.8216071295 -2.6238024648
H -0.2717791612 -1.1768005977 -2.4370357836
H -1.4493786691 -0.3102044094 -3.4388528501
H -4.0667968886 -1.5341789814 -2.1745803308
