24
CONF22
C 1.2658922273 -1.5199244641 -1.5332326766
C 1.5159135153 -0.7536086191 -0.2412320230
C 0.2427717272 -0.3344712603 0.5047385629
C -0.7789805005 0.3937886166 -0.3778983350
C -1.9608947112 0.9684721326 0.4255778483
C -2.6675401506 -0.0787039591 1.2732877542
O -2.8516657507 -1.2153731664 0.9096122685
O -1.5760276915 2.1054079205 1.1870991931
O -0.1749960294 1.4648839571 -1.1200551355
O 0.6142424891 0.4731509668 1.6387649759
O 2.3494905526 0.3921038172 -0.4933059589
O 2.4835180820 -2.0189270527 -2.0681726903
H 0.6241171392 -2.3879813139 -1.3407320079
H 0.7534663065 -0.8693300929 -2.2616479715
H 2.1061321140 -1.3906223840 0.4290662637
H -0.2401327813 -1.2367696921 0.8994426538
H -1.1792018332 -0.3237273995 -1.1034024066
H -2.7097287946 1.3287473876 -0.2970651586
H -3.0233560276 0.2962609865 2.2601083666
H -0.8284088123 1.8090692682 1.7369910253
H -0.3063141655 2.2655456600 -0.5882275180
H 1.4477323617 0.9043933095 1.3899778346
H 1.7955313042 1.0017680203 -1.0113046243
H 3.0984389373 -1.2741529458 -2.0926972350
