18
CONF3
C 0.5014162441 1.1022123593 0.3006954443
C 1.0335273820 -0.1681507385 0.0517905334
C 0.1920651034 -1.2383929609 -0.2712144450
C -1.1753652491 -1.0287218510 -0.3429057912
C -1.7223974814 0.2385532568 -0.0961996199
C -0.8715354863 1.3039231530 0.2263481671
O -1.4689108936 2.5083577522 0.4531281751
O -3.0584449696 0.4644073595 -0.1618179588
O -2.0894239551 -1.9973545602 -0.6489015356
C 2.4828693738 -0.4274669039 0.1177171960
O 3.0054862760 -1.5098473947 -0.0907853366
O 3.2053412224 0.6714855067 0.4390700203
H 1.1484537442 1.9355130767 0.5506051699
H 0.6091747102 -2.2213194896 -0.4635046233
H -0.7910182296 3.1622298879 0.6710845853
H -3.5007136889 -0.3674827058 -0.3897978632
H -1.6416672741 -2.8399245863 -0.8034755869
H 4.1411425628 0.4119785424 0.4581633529
