27
CONF192
C 2.9886743369 -0.7436547125 0.1024729615
C 4.0991265267 0.2787612729 -0.1408230726
C 5.4395317427 -0.3922643528 -0.4197256636
O 6.5018243636 0.5459054656 -0.5888241756
C 1.6466982823 -0.0533405420 0.3569076012
C 0.5453918467 -1.0437120288 0.6631786280
C -0.8825781402 -0.4358772541 0.8690947116
C -1.6673784428 -0.1229286362 -0.4470078834
C -2.8529363580 0.8797774592 -0.2659355690
F -3.6257568827 0.5156414686 0.7655658934
F -3.5947913283 0.8804838224 -1.3828421437
F -2.4004396728 2.1227658750 -0.0584894220
F -2.1727799509 -1.2707238495 -0.9414515222
F -0.8289149796 0.4189858594 -1.3702298848
F -0.7540527955 0.7190320656 1.5828244433
F -1.6359094609 -1.2946546925 1.5902734031
F 0.8420487846 -1.7093757684 1.8220738216
F 0.4357287381 -1.9910499591 -0.3224399567
H 2.8982331148 -1.4087310168 -0.7637898650
H 3.2478746639 -1.3718625164 0.9622174216
H 3.8299113245 0.9201610960 -0.9925548234
H 4.2095886204 0.9362270275 0.7302072766
H 5.3547215645 -1.0564024513 -1.2952256589
H 5.7306851002 -1.0142437467 0.4338236742
H 1.3565076468 0.5460622194 -0.5099613724
H 1.7205610330 0.6238083919 1.2137335518
H 6.3207678979 1.0616975655 -1.3820305456
