47
CONF167
C -1.5025629897 4.5826899247 1.5886319975
C -2.3868989708 3.4679469051 1.0779419926
C -2.8246865499 2.4002141402 2.0239003784
C -1.7071809783 2.0878923010 1.0231083441
C -1.9962445589 1.1215385494 -0.0396650394
O -3.0854119348 0.7830650995 -0.4561581676
O -0.8279183923 0.6006183378 -0.5372088137
C -0.9907831129 -0.3666135284 -1.6077567427
C -1.5377652291 -1.6125869127 -1.0561027127
N -1.9416178116 -2.6068736968 -0.6290589750
C 0.3598486161 -0.5840229920 -2.2433281232
C 0.6075808276 -0.0673202041 -3.5123734329
C 1.8700907091 -0.2336748688 -4.0790888900
C 2.8680808562 -0.9150533406 -3.3954784688
C 2.6020549273 -1.4303373122 -2.1258823836
C 1.3520473389 -1.2654184222 -1.5384765677
O 3.6501195871 -2.0524863529 -1.4870856198
C 3.3721719842 -2.9700736258 -0.4783801061
C 3.9905766800 -2.7821223973 0.7509121012
C 3.7943068698 -3.7265340742 1.7568823940
C 2.9835442473 -4.8364196086 1.5319496318
C 2.3717882347 -5.0079744994 0.2903774722
C 2.5660859318 -4.0777843259 -0.7261471442
C -2.5088318474 2.4297196541 3.4663205153
C -2.4267294386 1.3266150005 4.2077020741
Cl -2.1000335054 1.3494164411 5.9179339770
Cl -2.6297806462 -0.2679169194 3.5387410574
C -3.3296094503 3.8851693641 -0.0262012130
H -0.9348768933 5.0174490128 0.7599879888
H -0.7932431008 4.2347775578 2.3442290142
H -2.1194155558 5.3732369321 2.0306270414
H -3.7587931583 1.9047129857 1.7622520230
H -0.6937109409 2.0603762085 1.4079381779
H -1.7058170882 0.0171920453 -2.3429364321
H -0.1745699546 0.4579736033 -4.0503189542
H 2.0753289991 0.1637155083 -5.0676477256
H 3.8516101209 -1.0582652491 -3.8303013671
H 1.1532056525 -1.6592751899 -0.5471959647
H 4.6146336198 -1.9087253047 0.9087159397
H 4.2748516250 -3.5878709775 2.7202100804
H 2.8302742608 -5.5673373370 2.3190969206
H 1.7457870834 -5.8754696405 0.1064437511
H 2.1005589639 -4.2054513409 -1.6982615743
H -2.3564701241 3.3834519278 3.9637604098
H -2.7648557481 4.2478783383 -0.8917198065
H -3.9620500717 4.7040693556 0.3329632045
H -3.9746884748 3.0658892347 -0.3468064562
