45
CONF20
C 2.3734180489 -1.7934267551 -2.5391428091
C 2.2970166838 -0.8930564044 -1.3118393908
C 0.8606446305 -0.4216509830 -1.0966662944
O 0.2849761367 0.2170140646 -1.9777635689
N 0.2752657271 -0.7487282793 0.0764309085
C -1.0743261581 -0.3813841466 0.3700465187
C -1.4959312748 1.1244368902 0.4918565676
N -2.4904048080 0.8843296871 -0.5600719519
C -2.1516946353 -0.4504930625 -0.7402150891
O -2.6101977236 -1.3096247323 -1.4566197667
C -3.8000395360 1.4752037571 -0.4132265300
C -4.1153389363 1.4598838989 1.1293983674
S -2.4461990695 1.7175766754 1.9532696926
C -5.0605697354 2.5701825354 1.5745897834
C -4.6805479309 0.0897090006 1.5042206091
C -3.8966391108 2.8653247370 -1.0234258582
O -4.9156693843 3.3062361932 -1.5085166829
O -2.7440526599 3.5469127337 -0.9415342805
O 2.7301757696 -1.5863794342 -0.1317653094
C 4.0691594592 -1.6657862447 0.1529066055
C 5.0859337507 -1.1300963055 -0.6398733719
C 6.4124577492 -1.2715497934 -0.2296159851
C 6.7337977559 -1.9375863112 0.9481669883
C 5.7076059257 -2.4717180929 1.7290394649
C 4.3822591344 -2.3399333956 1.3378795364
H 3.4017387027 -2.1226179440 -2.7043576506
H 1.7373941581 -2.6718741208 -2.3956997226
H 2.0335838794 -1.2462671517 -3.4208727390
H 2.8923002002 0.0186150958 -1.4520491590
H 0.8090206273 -1.2692318534 0.7574614240
H -1.4212914426 -0.9471766426 1.2392079892
H -0.7155783136 1.8443912488 0.2346277942
H -4.5399479935 0.8549459498 -0.9283991666
H -4.6625490866 3.5639714727 1.3534778657
H -5.2337713120 2.4998214133 2.6519693914
H -6.0243051553 2.4531829259 1.0682825110
H -4.7848198414 0.0130445712 2.5894368599
H -5.6686336264 -0.0377509342 1.0470627331
H -4.0340378284 -0.7249151340 1.1660933397
H -2.8766776702 4.4297889239 -1.3301313634
H 4.8728905440 -0.6139302608 -1.5679112461
H 7.1988942255 -0.8535620815 -0.8507118427
H 7.7691258227 -2.0420586254 1.2549295495
H 5.9396542332 -2.9951110210 2.6515819588
H 3.5759102587 -2.7487878745 1.9384725263
