45
CONF3
C -2.1277636852 0.5420182737 3.0200852512
C -2.6251515342 0.8503068962 1.6389196138
N -3.8361477382 0.6429355913 1.2591742887
O -4.5978606880 0.0753345929 2.2857136004
C -5.9153370745 -0.1727649295 1.7920231276
C -1.7702836623 1.5272484973 0.6354975629
C -0.4369271075 1.1312072561 0.4073257938
C 0.3318638819 1.8605479141 -0.5111771421
C -0.1946286996 2.9511843499 -1.1882176685
C -1.5094444534 3.3311850306 -0.9567982681
C -2.2901561455 2.6279297413 -0.0504294692
O 1.6692320779 1.5936374093 -0.7660277256
C 2.0419619260 0.3729195462 -1.2374218845
N 1.0894457281 -0.4747941043 -1.5946813451
C 1.5178789790 -1.6644812450 -2.0339806595
C 2.8668329877 -1.9876963872 -2.1391814366
C 3.7487219017 -0.9815280058 -1.7521128895
N 3.3570199948 0.2086488946 -1.2884288023
O 5.0621974241 -1.2438207538 -1.8472315566
C 5.9688335551 -0.1981103632 -1.4477062097
O 0.6195442624 -2.5889621302 -2.3905683454
C -0.7769985739 -2.2406253023 -2.2415882204
C 0.0618335895 -0.1292212178 1.0230970326
O -0.5966535338 -1.1411376727 1.1276642153
O 1.3326533429 -0.0163519501 1.4596568287
C 1.9223482815 -1.2500271442 1.9239321897
H -2.7605270357 1.0593077271 3.7491011745
H -1.0949462669 0.8669429191 3.1550990581
H -2.2009895036 -0.5289749581 3.2260299115
H -6.4656675042 -0.6004288219 2.6329924823
H -6.3931465368 0.7583562799 1.4664668769
H -5.8921294656 -0.8847594673 0.9594650970
H 0.4393021789 3.4806383855 -1.8902635673
H -1.9234615534 4.1860485002 -1.4812765510
H -3.3108401178 2.9278475112 0.1537831345
H 3.2064571464 -2.9484554884 -2.4989516180
H 5.8229392284 0.6960815211 -2.0592906939
H 6.9638145077 -0.6144034564 -1.6067818013
H 5.8229795298 0.0615405501 -0.3958138513
H -1.3183593412 -3.1320229362 -2.5583795467
H -1.0292797404 -1.3911075582 -2.8817688936
H -1.0049356314 -1.9957016640 -1.2014416860
H 1.3736965554 -1.6346609528 2.7873264140
H 2.9469933926 -0.9956548423 2.1929370304
H 1.9050841318 -1.9953156924 1.1232292488
