54
CONF560
C -4.9203316513 -3.1066077719 0.7452973266
C -3.8490427826 -2.6175013226 -0.2345442530
C -3.6208717429 -3.6594898649 -1.3297199169
C -2.5405311439 -2.2915727250 0.5193195613
C -1.3759185229 -2.0324884803 -0.4519585859
O -0.6011500161 -2.9355673965 -0.7654678935
N -1.3147838055 -0.7771021492 -0.9542354902
C -0.2130540232 -0.3024211989 -1.7870972073
C -0.7349776519 0.0537754931 -3.1923254279
C 0.3295216838 0.6654534368 -4.0679983983
O 0.1989693818 1.6836685311 -4.7161307836
O 1.4587945991 -0.0645052772 -4.0438511188
C 2.5605802595 0.4536167810 -4.8313764369
C 0.4917054918 0.8558519938 -1.1082013268
C -0.0919251297 2.1235113491 -1.0421724255
C 0.5504522824 3.1741474792 -0.3955686385
C 1.7901575300 2.9420095272 0.1863802425
C 2.3986361757 1.6945112776 0.1361034207
C 1.7383045175 0.6564110974 -0.5137238156
Cl 2.6042874901 4.2608230824 1.0210388638
N -2.7645940937 -1.1669904471 1.4139457631
C -1.7832703344 -0.7310823386 2.2456204984
O -0.6799720133 -1.2543565607 2.3340881646
O -2.1967714082 0.3455271747 2.9554794274
C -1.1867191405 1.0000680718 3.7966975569
C -0.3246331594 1.8967447437 2.9276984413
C -1.9643226214 1.7584903428 4.8523771888
H -5.8558906171 -3.2973133438 0.2109776646
H -4.5992332854 -4.0435161161 1.2145226070
H -5.1284482265 -2.3828254375 1.5383021141
H -4.1926467055 -1.6857628212 -0.7081725196
H -3.2059981236 -4.5807417891 -0.9059276389
H -4.5745825982 -3.9032624351 -1.8068915436
H -2.2360568877 -3.1734868690 1.0976652570
H -1.9525183717 -0.0851100061 -0.5844879309
H 0.4872955585 -1.1360895464 -1.8711705675
H -1.0973347223 -0.8637067403 -3.6709067344
H -1.5676627005 0.7582152786 -3.1377687287
H 2.2807152431 0.4974959272 -5.8863773566
H 3.3789543828 -0.2486416591 -4.6788854370
H 2.8355411024 1.4502657336 -4.4781502885
H -1.0618536155 2.3087135058 -1.4946806622
H 0.0914878386 4.1548249708 -0.3430734223
H 3.3665580540 1.5332013264 0.5968733431
H 2.2039721863 -0.3238328916 -0.5573426413
H -0.5801145511 0.2130150421 4.2550229757
H 0.1733996125 1.3205675998 2.1436655806
H 0.4436501012 2.3786256270 3.5405236007
H -0.9357158642 2.6761042422 2.4608232638
H -1.2646456755 2.2624364497 5.5252025583
H -2.5868896589 1.0804770218 5.4423475100
H -2.6036192927 2.5161281327 4.3881649026
H -2.9355195643 -3.3026609114 -2.1032249092
H -3.6290197053 -0.6486201215 1.3679786738
