43
CONF14
C 1.5294883649 2.6934413120 1.7037787634
C 0.2644991953 2.6541259174 1.1077947513
C 0.1840457687 2.1131132303 -0.1617953836
N 1.2234929111 1.6196431041 -0.8422974149
C 2.4053857700 1.6386791651 -0.2464318902
C 2.6201492516 2.1875319946 1.0293535049
O 3.4796125138 1.1068193887 -0.8609375324
C 3.2623389098 0.3428954426 -2.0724580380
C 4.3929215179 -0.6673550445 -2.1774658382
C 4.6299107317 -1.4952946446 -0.9207744099
O 3.5748510284 -2.4438592502 -0.6222477422
C 2.3981564207 -1.9816513362 -0.1210802048
C 1.2151501250 -2.1675652482 -0.8476690041
C -0.0355255352 -1.7866310469 -0.3758360778
C -0.1229949075 -1.1792862406 0.8744768037
C 1.0226815068 -1.0102162430 1.6515159085
C 2.2489543759 -1.4243217901 1.1602284478
Cl 3.6377550423 -1.2859884617 2.2163731613
O -1.2794885071 -0.7122960949 1.4258485414
C -2.5089918204 -1.0459891430 0.7630338600
C -3.6042929386 -0.4788910404 1.5975358325
C -4.7199629412 0.0679713264 1.1242579691
Cl -5.9640087049 0.6838953339 2.1699754613
Cl -5.0814665895 0.2143518783 -0.5682782301
Cl 1.3131771914 -2.8916512535 -2.4350054673
C -1.1274492554 2.1005219613 -0.9171196735
F -1.2023005368 3.1364627307 -1.7850624268
F -1.2932365547 0.9692843050 -1.6356399714
F -2.1849124048 2.2047493540 -0.0776941570
H 1.6506289890 3.1115474179 2.6976794223
H -0.6154813484 3.0283227694 1.6141908561
H 3.6152207158 2.1782606531 1.4576022558
H 3.2601122803 1.0290405762 -2.9272896723
H 2.2838886037 -0.1361190304 -2.0286068933
H 4.1875001994 -1.3246116685 -3.0296601060
H 5.3342506531 -0.1421111767 -2.3866440709
H 5.5099413922 -2.1283584616 -1.0579730418
H 4.8041199310 -0.8394579284 -0.0649275693
H -0.8996324076 -1.9374665429 -1.0073081267
H 0.9417734943 -0.5692555896 2.6371250307
H -2.5285521473 -0.6332810555 -0.2504878385
H -2.5974206183 -2.1434213949 0.7003679532
H -3.4803677064 -0.5362266237 2.6742674360
