29
CONF82
C 2.3856194355 -0.1166933123 -1.8289760241
C 2.7257422756 -0.1237778684 -0.3652541043
C 1.9141567604 0.3262654951 0.6027903037
C 0.5357838231 0.8986301618 0.4371781726
C -0.5429920196 -0.1701661006 0.6735355855
C -1.9937695335 0.2991869929 0.4262283874
C -2.3717210060 1.4972868005 1.2978565855
C -2.9180052833 -0.8540061444 0.7422908080
C -3.7761437943 -1.4191298768 -0.1029619061
O -2.1456089601 0.7425787549 -0.9328877977
C 4.0778061306 -0.6995991794 -0.0446426737
H 2.4240083865 -1.1388088333 -2.2267089997
H 3.1284149974 0.4627007017 -2.3920257066
H 1.3959001225 0.2921756263 -2.0400268060
H 2.2649073836 0.2404596204 1.6323620161
H 0.4001786662 1.3295827250 -0.5588657896
H 0.4036747650 1.7134228731 1.1582833265
H -0.4665205296 -0.5527473313 1.6991246202
H -0.3505778461 -1.0217434762 0.0060254775
H -3.4176028099 1.7669003412 1.1248692637
H -1.7443805007 2.3598352985 1.0587391202
H -2.2438751816 1.2509811496 2.3556062399
H -2.8376431917 -1.2275204885 1.7633945359
H -3.8865860039 -1.0665927788 -1.1246845440
H -4.3996227042 -2.2516627800 0.2084744666
H -1.8635796012 0.0210124098 -1.5117553845
H 4.1509952506 -1.7363563584 -0.3976607062
H 4.2823737374 -0.6827363843 1.0292072014
H 4.8690657288 -0.1394780487 -0.5594133598
