48
CONF7
C 3.4169770453 0.2078669392 0.2116554411
C 2.0781624900 0.3637831327 0.4186284497
C 1.0242025812 -0.2541199833 -0.3331113851
C 1.4036960020 -1.1721269695 -1.4612607291
C -0.2729524380 0.0361162861 0.0114428509
C -1.4500189491 -0.5191507629 -0.5746143159
C -2.7663013603 -0.2223572436 -0.3505363041
C -3.2664164773 0.9189791618 0.4255110251
C -2.3972717556 2.1249896037 0.7025894750
C -4.5526570126 0.9615437818 0.8383373274
C -5.5516281442 -0.1256431114 0.6421775058
C -4.9103736363 -1.3915790444 0.0897851920
C -3.8563472871 -1.0902164105 -0.9964737498
C -4.4962478521 -0.3211599677 -2.1691922556
C -3.3487593781 -2.4353155538 -1.5282076937
C 4.4026373386 0.8632363359 1.0058776053
C 5.7618914868 0.7865232231 0.8900650660
C 6.4636381740 -0.0449332743 -0.1428215548
C 6.5765959999 1.5492394804 1.8133146901
C 7.9192531412 1.5908445182 1.8403317244
H 3.7497241383 -0.4403662482 -0.5931256722
H 1.7648299499 1.0212210036 1.2300010826
H 2.0118592235 -2.0063348806 -1.0933794274
H 2.0058967346 -0.6355250322 -2.2032995045
H 0.5390249422 -1.5859803377 -1.9785236828
H -0.3907897530 0.7191623687 0.8434482960
H -1.2664866005 -1.3348962158 -1.2631145390
H -1.7783667353 1.9915316642 1.5962300714
H -3.0263817735 3.0015690114 0.8770588227
H -1.7279197970 2.3399437187 -0.1349706805
H -4.9027121855 1.8605327197 1.3433954939
H -6.0666701372 -0.3356755961 1.5891742074
H -6.3403854081 0.2337711216 -0.0379952172
H -5.6778265303 -2.0567309123 -0.3244051660
H -4.4141415874 -1.9363176574 0.9033144980
H -3.7592815637 -0.1712204465 -2.9645441298
H -4.8594032991 0.6623389815 -1.8609776710
H -5.3373808304 -0.8896501569 -2.5831268199
H -4.2017109758 -3.0263724260 -1.8779014300
H -2.6714169052 -2.3183127974 -2.3797968892
H -2.8351706446 -3.0079706165 -0.7488946779
H 4.0157208708 1.5026959677 1.7999594041
H 5.7726037374 -0.5853435461 -0.7889421965
H 7.1209384732 -0.7789049732 0.3377989401
H 7.0974959017 0.5852182641 -0.7775535896
H 6.0268185629 2.1386953614 2.5462754866
H 8.5318806612 1.0308381335 1.1415898156
H 8.4411720810 2.1955635918 2.5732461142
