33
CONF172
C -3.3087838936 -1.0020821790 2.3842851514
C -3.4650946736 -0.5865746180 0.9252471249
C -2.5746048026 -1.3541526154 -0.0416398083
S -0.7463891375 -1.2037332921 0.2941591390
P -0.4918385180 0.8168913586 -0.1909470730
O -1.3117894904 1.2994009882 -1.3303934902
O -0.6841850804 1.7448554272 1.0858433351
C 0.0223021596 1.5033156243 2.3557302622
C 1.1112127783 2.5325459056 2.5388011751
O 1.1328865448 0.9157005592 -0.3798120951
C 1.7989314940 0.1662418243 -1.3318935343
C 1.5809547989 0.3707344184 -2.6892340010
C 2.2951363685 -0.3598386108 -3.6317412339
C 3.2324681139 -1.2852299107 -3.1906938357
C 3.4781729538 -1.5019198628 -1.8411318798
C 2.7487664889 -0.7673509204 -0.9132900043
Cl 3.0247332831 -1.0189424315 0.7907481126
Br 4.2274824886 -2.2944784594 -4.4759167306
H -3.4893878541 -2.0757537883 2.5051869507
H -2.3002518361 -0.7853654734 2.7501457789
H -4.0200240494 -0.4632630893 3.0166812503
H -4.4973384973 -0.7666381528 0.5967768910
H -3.2912666761 0.4903967941 0.8146867526
H -2.7380152748 -1.0494764594 -1.0775675278
H -2.7454521559 -2.4331221038 0.0378494500
H -0.7494722327 1.5837515515 3.1246067813
H 0.4178965694 0.4825750185 2.3621833951
H 0.6974757607 3.5443319462 2.5143965614
H 1.5836875893 2.3760109517 3.5138298516
H 1.8762015814 2.4385275179 1.7639681357
H 0.8490866923 1.1071900361 -3.0016736057
H 2.1230415252 -0.2005183909 -4.6892351652
H 4.2134549763 -2.2240293730 -1.5085287336
