36
CONF3
C -3.7977507095 -1.0667021740 -0.1711813566
C -2.4905615683 -1.7112126139 0.2512512214
C -2.1946182961 -3.0032935873 -0.4814450368
O -1.3822772568 -0.8025859670 -0.0830386996
C -1.0776089842 0.1543930046 0.8074207746
O -1.6994378897 0.3339470947 1.8469350710
C 0.0409100777 1.0057274613 0.3661106939
C 1.0783373987 0.5015871270 -0.5536764828
O 1.7125477229 1.2161683469 -1.3189171457
O 1.2946684543 -0.8151663804 -0.4168922484
C 2.3045549212 -1.4310413696 -1.2935182424
C 3.6725469114 -1.2629483038 -0.6590287629
C 1.8863521964 -2.8789970385 -1.4435126941
C 0.1181429595 2.3069487134 0.8180275261
S 1.3479836320 3.4343839389 0.2604333223
C 1.0172884219 4.7120181504 1.5424748878
C -0.4708918776 4.7230851117 1.7860893674
S -1.0016047976 2.9735152054 1.9985827537
H -3.7999363230 -0.8877494209 -1.2511894169
H -3.9552318841 -0.1186814917 0.3492100262
H -4.6284292090 -1.7367380201 0.0705652221
H -2.4717130485 -1.8672884827 1.3339132185
H -2.9838650437 -3.7293073764 -0.2658881009
H -2.1643725184 -2.8352014830 -1.5626766206
H -1.2377710671 -3.4235712585 -0.1601032483
H 2.2617866548 -0.9133499029 -2.2563299129
H 3.9181512060 -0.2059794000 -0.5293733204
H 4.4305528528 -1.7187838965 -1.3032415249
H 3.7012796181 -1.7606469553 0.3155601832
H 0.8887427175 -2.9532329375 -1.8846567050
H 1.8844322294 -3.3818530305 -0.4712649713
H 2.5957516384 -3.3935993122 -2.0980638500
H 1.3711520874 5.6658385910 1.1402406811
H 1.5798759473 4.4612578074 2.4464042642
H -0.7283876435 5.2488477793 2.7102019169
H -1.0206001335 5.1602119651 0.9475006026
