41
CONF3
C -5.5878051248 1.2898957130 -0.3380997082
C -4.3000761833 0.5507450689 -0.1461334934
C -3.8880053087 -0.4575802134 -1.0198209148
C -2.6886247144 -1.1066763687 -0.7475214126
N -1.9594732713 -0.7712396172 0.3245151975
C -2.4171883355 0.2290493290 1.0807689755
N -3.5590763895 0.9077384332 0.9082439685
N -1.6572453748 0.6462163307 2.1635291222
C -0.3572667332 0.3087762963 2.5686253602
O 0.2032143075 0.9628334637 3.4273277118
N 0.1754340059 -0.7988462860 1.9375076363
S 1.8306550790 -1.1811665912 2.0633814115
O 2.0214626421 -2.2325541485 1.0591119231
O 2.1682353837 -1.3923042789 3.4651760385
C 2.6885176175 0.2986066445 1.4972686345
C 3.2486139926 1.1315870265 2.4570102474
C 3.9987514243 2.2294815202 2.0491201937
C 4.2009701744 2.4699652696 0.6946096890
C 3.6445403625 1.6242432344 -0.2595194885
C 2.8650144992 0.5361039900 0.1307165146
C 2.1828997334 -0.2749754584 -0.9261822188
O 0.9811664419 -0.3664192962 -1.0452711730
O 3.0763867724 -0.8237912935 -1.7644095511
C 2.5005825159 -1.6406969512 -2.8085165572
C -2.1315975585 -2.1922299796 -1.6105803817
H -6.1019338146 0.9748764334 -1.2478868191
H -6.2438874410 1.1171313591 0.5209191710
H -5.3968919749 2.3660191977 -0.3831254904
H -4.4856558087 -0.7286542383 -1.8820264321
H -2.0315669780 1.4407207998 2.6624252326
H -0.3086619727 -1.1133110011 1.0796944110
H 3.0920916476 0.9085524966 3.5054386974
H 4.4318904138 2.8889569057 2.7932900964
H 4.7977313858 3.3180615983 0.3755303518
H 3.8035002958 1.8078111699 -1.3167514208
H 1.9345836865 -2.4626114266 -2.3625941295
H 3.3477127770 -2.0196376489 -3.3789087592
H 1.8413435411 -1.0411906799 -3.4417473214
H -2.0240128285 -3.1133352490 -1.0287601673
H -1.1288501099 -1.9042200765 -1.9431285910
H -2.7674786826 -2.3859319907 -2.4760680556
