39
CONF141
C 9.5899164033 3.1161148571 -0.0212868300
C 8.3509359321 2.8118238815 -0.4051706391
C 7.4152318219 2.1324185730 0.5136509495
O 7.6529140210 1.7837912191 1.6536071783
O 6.2178036020 1.9395584651 -0.0894992377
C 5.2160351618 1.2737305120 0.7154380323
C 3.9815764237 1.1872877112 -0.1693692153
C 2.8357515534 0.5321561741 0.5640090532
C 1.5727992384 0.3354938378 -0.3307402983
C 0.2631006477 -0.0455494028 0.4438189005
C -0.8409146375 -0.6733561452 -0.4803123749
C -2.2746716798 -0.6378418879 0.1605328908
C -3.2750052605 -1.6410736655 -0.5161523930
C -4.7768670168 -1.3097088764 -0.2119440066
C -5.7553508365 -2.5021914639 -0.4730711758
F -7.0138643441 -2.0471180010 -0.4157397512
F -5.6038463989 -3.4557715205 0.4517472486
F -5.5386488223 -3.0268203599 -1.6874086771
F -4.9065060574 -0.9528189291 1.0868337010
F -5.1633675325 -0.2804409835 -0.9948634108
F -3.0969878830 -1.6054938474 -1.8564311094
F -3.0054516438 -2.8882672301 -0.0696653269
F -2.1782042494 -0.9525663871 1.4717757081
F -2.7708374731 0.6141718527 0.0397960185
F -0.8785870297 0.0108217503 -1.6459794265
F -0.5119644164 -1.9609262604 -0.7324261141
F -0.2404448705 1.0755763693 1.0127801398
F 0.5583083593 -0.9365192821 1.4160766402
F 1.8464486227 -0.6389880847 -1.2363336952
F 1.3375000195 1.4910444099 -1.0005298508
F 2.4584182847 1.2808506430 1.6506613808
F 3.2064431361 -0.6989192539 1.0350609797
H 10.2781173537 3.6145995399 -0.6954109423
H 9.9393947583 2.8720085243 0.9777471296
H 7.9811591412 3.0478565429 -1.3980988857
H 5.0291476077 1.8625946926 1.6182515491
H 5.5844503704 0.2854167537 1.0034212335
H 3.6689779895 2.1884984395 -0.4769210643
H 4.1994719928 0.6003365696 -1.0674607796
