41
CONF52
C -3.6369743579 -1.6572303610 1.9051510067
C -4.3714546593 -0.3529148458 1.7182197372
O -4.4082070042 -0.0850664429 0.2788399394
C -4.9466996105 1.0768343665 -0.0898277395
O -5.4352433984 1.8931381917 0.6649491555
C -4.9430611611 1.2711741780 -1.6060697711
C -6.2855092059 0.8329865165 -2.1735912586
O -3.9419593197 0.4938320756 -2.2684829478
C -2.6284874011 0.7674532994 -2.0084987136
C -1.7107625650 -0.1107293346 -2.5957849433
C -0.3508584482 0.0687529869 -2.3992749182
C 0.0743755139 1.1251225860 -1.6066124120
C -0.8115018837 2.0097751596 -1.0246713234
C -2.1799682162 1.8335788556 -1.2252658616
O 1.4613642823 1.3534166932 -1.4364237506
C 2.1264295209 0.5741513113 -0.5990695744
N 3.4113720259 0.5745085252 -0.4488702531
C 3.6172590059 -0.3746453169 0.5554247297
C 2.3828491355 -0.9029303301 0.9477976496
O 1.4048558140 -0.2810813416 0.1940951528
C 2.2084758408 -1.8684028720 1.9133908190
C 3.3950390355 -2.3034221940 2.5048916655
C 4.6530891199 -1.8088300174 2.1519298876
C 4.7795273252 -0.8315902030 1.1652288735
Cl 3.2943807619 -3.5355765547 3.7578092706
H -3.5870392204 -1.8898630536 2.9727866158
H -4.1548794766 -2.4753176610 1.3971937199
H -2.6161919616 -1.5880252785 1.5183530668
H -5.4023408713 -0.3987034634 2.0819368655
H -3.8616551590 0.4833489751 2.2057208819
H -4.7865027016 2.3405981201 -1.7954295045
H -6.3023405524 1.0165321981 -3.2504428493
H -7.0881124417 1.4061430108 -1.7039285430
H -6.4467868730 -0.2322363373 -1.9868075927
H -2.0793442883 -0.9299244971 -3.2036154676
H 0.3711238647 -0.6049021003 -2.8488836742
H -0.4436961292 2.8282247173 -0.4154899731
H -2.8655283377 2.5344281612 -0.7645104607
H 1.2376265778 -2.2575491542 2.1935764012
H 5.5354099205 -2.1908391514 2.6520003931
H 5.7540421338 -0.4454707504 0.8881374208
