49
CONF147
C -1.7744355937 -0.4008280746 -1.2457179675
C -2.5963533472 -1.1227189078 -0.1957881403
C -2.7312582236 -0.5827110038 1.2405012360
C -1.9308045735 -1.8716451083 0.9231601058
C -2.5408833553 -3.1543154657 1.4558024819
C -0.4225109421 -1.8870565455 1.0566996357
C -2.1638379127 0.6400599789 1.8129775979
O -2.6208445650 1.2117879936 2.7863211531
O -1.0552655262 1.1118866681 1.1653989797
C -0.4615886226 2.3043440375 1.7243304741
C 0.1783690849 1.9811535040 3.0071724966
N 0.7188226948 1.7384497058 3.9988222659
C 0.5543939436 2.8149413824 0.7290092130
C 1.5182814032 1.9365590487 0.2360069493
C 2.4375051831 2.4002698954 -0.6981823840
C 2.4236435775 3.7324966745 -1.1140000022
C 1.4682903271 4.5970553953 -0.5973394803
C 0.5197448812 4.1441014130 0.3192925380
O 3.4286319949 1.5998896589 -1.2196431775
C 3.2188561411 0.2234273345 -1.2323859792
C 4.1466753762 -0.5843150041 -0.5885355363
C 3.9901822470 -1.9682038125 -0.6456788845
C 2.9153675559 -2.5277219058 -1.3320953400
C 1.9949682092 -1.6994910716 -1.9735809761
C 2.1433294223 -0.3170220839 -1.9317106897
C -3.8887846510 -1.6532051216 -0.7923718364
H -1.6297472432 -1.0759523391 -2.0972816427
H -0.7959084119 -0.0744190084 -0.9018376253
H -2.3174499258 0.4793196184 -1.6071045279
H -3.6932754057 -0.7809461556 1.7033485457
H -2.1840253464 -3.3379430666 2.4748278662
H -3.6307748895 -3.1320175030 1.4802997602
H -2.2275011375 -4.0002445566 0.8326607314
H 0.0655431732 -0.9885741540 0.6852962139
H -0.0248511060 -2.7420754053 0.4977927267
H -0.1423055995 -2.0161867948 2.1080567202
H -1.2337449550 3.0576190091 1.9138584455
H 1.5471737257 0.9056549723 0.5713554820
H 3.1575076537 4.0704392957 -1.8378756630
H 1.4518211936 5.6314975896 -0.9241909951
H -0.2381303725 4.8165085686 0.7074010765
H 4.9735957645 -0.1295463542 -0.0532401606
H 4.7105612530 -2.6077577824 -0.1455676012
H 2.7946745873 -3.6053926353 -1.3691697220
H 1.1577651286 -2.1299986627 -2.5141130990
H 1.4362237520 0.3388442303 -2.4297851229
H -3.6677448143 -2.4450075660 -1.5173656656
H -4.5731262783 -2.0544058028 -0.0439332057
H -4.4067744699 -0.8466031143 -1.3222277809
