47
CONF9
C -2.1576422896 -0.5945065805 2.3711027115
C -2.9671182013 -0.5815899126 1.0772732194
C -3.6486621385 0.7646246624 0.8347261613
C -4.4588780118 0.8151047681 -0.4480487399
O -3.5955363785 0.6187003652 -1.6076371598
C -2.9935518714 1.7155028518 -2.0883023112
O -3.1823385689 2.8491867837 -1.7096572524
C -2.0551291351 1.3814870424 -3.2514944987
C -2.8400104989 1.3560467599 -4.5538235323
O -1.4346783666 0.1045888178 -3.1180996769
C -0.6703424355 -0.1177895329 -2.0051565822
C -0.2852491560 -1.4431459674 -1.7947910943
C 0.4728958311 -1.7789334082 -0.6833138970
C 0.8403736970 -0.7887642856 0.2163013044
C 0.4736005765 0.5302778092 0.0156027746
C -0.2828381791 0.8747426006 -1.1008132861
O 1.5018614575 -1.1750398660 1.3885855208
C 2.8045713681 -0.8284971336 1.5549546727
C 3.3791091704 -1.1816629354 2.7856708611
C 4.7022146598 -0.8585061934 2.9865203165
C 5.4037607208 -0.1981916481 1.9704266651
C 4.7356622475 0.1017146827 0.7922937851
N 3.4509963225 -0.2076762841 0.5832321344
C 6.8461092573 0.1385731978 2.1676198772
F 7.6279050855 -0.9735100099 2.1645092696
F 7.0574660300 0.7481250596 3.3624421692
F 7.3200253246 0.9599177331 1.2061329704
H -1.6484175377 -1.5525441312 2.5111793621
H -1.3896799102 0.1859547152 2.3551142010
H -2.7980064413 -0.4183660723 3.2426701562
H -2.3112031324 -0.8120775199 0.2309232984
H -3.7292525994 -1.3718933478 1.1067562134
H -4.3317079732 0.9941754458 1.6642673978
H -2.9023036970 1.5688981711 0.8143083897
H -4.9839750935 1.7675969140 -0.5581018788
H -5.1712945461 -0.0127201772 -0.5030639546
H -1.2997928947 2.1779106063 -3.2821001268
H -3.3350990209 2.3181885918 -4.7064696172
H -3.5914542508 0.5632104949 -4.5219601239
H -2.1600510744 1.1683866876 -5.3882097254
H -0.6017504172 -2.1979823327 -2.5057218886
H 0.7711213619 -2.8054790905 -0.5011817751
H 0.7765284285 1.2905281874 0.7270160978
H -0.5654379483 1.9113935441 -1.2389035330
H 2.7853166333 -1.6887231127 3.5364898297
H 5.1954726168 -1.1065394754 3.9207389571
H 5.2464099683 0.6121024405 -0.0200083659
