33
CONF7
C -3.8390914514 -0.0589061764 1.4011238466
C -3.5689197827 0.5302816539 0.0167431852
C -3.6742256480 2.0450004908 0.0364108490
O -3.8056779078 2.5439049321 -1.2151986555
O -3.6298589435 2.7427934327 1.0236960485
C -2.1983364271 0.1421903880 -0.5145215708
C -2.0763981465 -0.6748572054 -1.6411177396
C -0.8218092940 -1.0510865940 -2.1118903960
C 0.3270199123 -0.6281309178 -1.4540590299
C 0.2194420432 0.1978768443 -0.3293533983
C -1.0436891050 0.5871704912 0.1245640469
C 1.4216045193 0.7556207264 0.3583731935
O 1.3767122846 1.8660467155 0.8751312802
C 2.6754249754 -0.0496546210 0.4080395990
C 2.6562036823 -1.4480197701 0.4688850496
C 3.8458066844 -2.1581899096 0.5917298769
C 5.0615907169 -1.4803020903 0.6307512502
C 5.0871498595 -0.0869419131 0.5684114745
C 3.9001568639 0.6257114815 0.4723529286
H -4.8357380633 0.2222632443 1.7519534319
H -3.1079289599 0.3053929332 2.1264498772
H -3.7736520601 -1.1490538277 1.3549603686
H -4.3168383192 0.1683454423 -0.6971342643
H -3.8243632937 3.5126580185 -1.1435254914
H -2.9713217612 -1.0147622013 -2.1544317031
H -0.7412384880 -1.6746819103 -2.9964213716
H 1.3046112893 -0.9115832950 -1.8291731995
H -1.1067843401 1.2449574835 0.9867581643
H 1.7092310342 -1.9773385852 0.4497724172
H 3.8238806009 -3.2412194677 0.6575594448
H 5.9899766407 -2.0364149789 0.7150771196
H 6.0349888626 0.4408257095 0.5997491717
H 3.9020722388 1.7101035660 0.4390557206
