47
CONF65
C -2.2125495352 1.4864210601 3.0395438062
C -1.7297268193 2.1601281205 1.7750614801
C -2.5173796139 3.3007503946 1.1723557006
C -2.5824773994 1.9185128553 0.5255848519
C -1.9389349533 1.7248565249 -0.7806850641
O -1.1566354013 2.4656828762 -1.3357015918
O -2.3244182650 0.5232008152 -1.3161818078
C -1.6191296511 0.1602543067 -2.5256080595
C -2.3988980182 -0.9260086024 -3.1203279819
N -2.9767505715 -1.7964360639 -3.6119656814
C -0.1979443400 -0.2885526264 -2.2412448666
C 0.8311574388 0.0878517211 -3.1007503006
C 2.1309058621 -0.3304661520 -2.8276670863
C 2.4101290031 -1.1092389556 -1.7097832487
C 1.3640015228 -1.4804314506 -0.8646586876
C 0.0571004324 -1.0814753443 -1.1259157905
O 1.5611439413 -2.1925927985 0.2980280764
C 2.6162511606 -3.0944933607 0.3660221047
C 2.7949468195 -4.0675984305 -0.6137113318
C 3.8209508260 -4.9951718174 -0.4604957990
C 4.6493431006 -4.9559421751 0.6606049862
C 4.4479695549 -3.9809870370 1.6348545698
C 3.4303909899 -3.0403372093 1.4908448063
C -3.7274286079 3.8371391594 1.7989045870
C -4.0792301138 5.1230644512 1.8151403650
Cl -5.5408717995 5.6785651833 2.5910672875
Cl -3.1495444030 6.4020164427 1.0820002660
C -0.2241996844 2.2222010344 1.6587242038
H -1.9027402017 2.0711219849 3.9127615105
H -1.7606866733 0.4923664021 3.1193808928
H -3.2972741074 1.3668581524 3.0685821071
H -1.9136543402 4.0106199688 0.6153261196
H -3.4780318593 1.3289876706 0.6897703944
H -1.6122847578 1.0042682467 -3.2254378692
H 0.6215794670 0.7103889652 -3.9647767780
H 2.9425184580 -0.0310221600 -3.4827507759
H 3.4266293286 -1.4171575376 -1.4917327959
H -0.7389825075 -1.3813757478 -0.4522262601
H 2.1404567838 -4.0967511103 -1.4789407543
H 3.9663001818 -5.7580361786 -1.2189910588
H 5.4453289943 -5.6844020787 0.7746258561
H 5.0872227809 -3.9450619424 2.5113924076
H 3.2609765259 -2.2714647327 2.2374319023
H -4.4044996731 3.1463746483 2.2921228379
H 0.1968556169 1.2101943069 1.6508562748
H 0.1806430753 2.7501290657 2.5285376268
H 0.1014720248 2.7430494510 0.7570743799
