41
CONF178
C -2.2200312952 4.5225115091 -0.9219226828
C -2.2410275825 3.1316551908 -0.2955614950
C -3.4160147986 2.9889338146 0.6693140416
N -0.9654949805 2.9127632446 0.4056763472
C -0.7537411146 1.5280394562 0.8260386192
C 0.7134681067 1.3195219511 1.1931875150
O 1.5721428388 1.6028637947 0.0820710273
C 0.9888716814 -0.0763907488 1.7272392286
O 0.6658009808 -0.9829248707 0.6639947120
C 1.1452958814 -2.2580610103 0.7066378700
C 1.7159601177 -2.8382498667 1.8391767016
C 2.1674668269 -4.1564086669 1.7807827761
C 2.0477515693 -4.8914364770 0.6081284924
C 1.4672203356 -4.2995986843 -0.5137712938
C 1.0093590238 -2.9858606172 -0.4895685116
C 0.3949350583 -2.3333621519 -1.7050250421
C 1.2716000778 -1.2750393432 -2.3183082369
C 0.8627213630 -0.0566477600 -2.6698104667
H -1.3763487720 4.6323355924 -1.6123579489
H -3.1418244120 4.7059678134 -1.4818671941
H -2.1284083175 5.2870803361 -0.1428649055
H -2.3716512037 2.3856057429 -1.1061608658
H -3.4842016301 1.9788821299 1.0839347300
H -4.3574195037 3.2003674624 0.1527563090
H -3.3057964911 3.6963156847 1.4988808242
H -0.2113448819 3.1409523845 -0.2377911357
H -1.3660921744 1.3050711782 1.7098378957
H -1.0335899927 0.7984593692 0.0414463616
H 0.9891357413 2.0398863420 1.9735136559
H 1.4336237869 0.8962473563 -0.5711898552
H 0.3772032233 -0.2903898069 2.6151411886
H 2.0517175111 -0.1657996189 1.9847884879
H 1.8029391858 -2.2798029058 2.7636666054
H 2.6107967588 -4.6040676506 2.6647477189
H 2.3976620553 -5.9172428528 0.5637284461
H 1.3670862287 -4.8688427495 -1.4342492667
H 0.2204009521 -3.1160808926 -2.4547176520
H -0.5791998149 -1.8962501131 -1.4573829557
H 2.3078143675 -1.5658646413 -2.4932579700
H -0.1647571935 0.2629192086 -2.5063536241
H 1.5359709787 0.6525822901 -3.1425284466
