57
CONF3
C 1.7091316601 -0.6613893162 0.7144777489
C 2.5963017915 -0.8491920444 1.9490496951
C 4.0269158256 -0.9245902798 1.3905805046
O 4.8682434036 -0.0667648454 2.1699556786
C 3.9484180380 -0.4766113448 -0.1277509775
C 4.0971468619 -1.6874787820 -1.0377506232
O 5.0459523822 0.3663391790 -0.4764669540
C 2.5528899937 0.2230007163 -0.2231532804
C 2.6897579909 1.6628721712 0.3071381195
C 1.8760923904 0.2383617761 -1.5941165981
C 0.4273668060 0.7378755490 -1.4857069479
C -0.4110169085 -0.0659371757 -0.4731216123
C 0.2792690910 -0.1654044438 0.9092154279
C -0.5091317343 -1.0968017599 1.8310809433
C -1.9641893422 -0.6625968974 1.9540861916
C -2.6463221790 -0.5528338701 0.5906739152
C -4.1303949205 -0.1841804385 0.7753636389
C -4.7332455655 0.0996859677 -0.5505269848
C -4.0343368252 0.3229042634 -1.7180828600
C -2.5429520365 0.2797045526 -1.7901517109
C -1.8944566806 0.4046374865 -0.3845847067
C -2.0118268471 1.8636290160 0.0808086353
C -5.0310326326 0.5753759842 -2.6866585335
N -6.2575597788 0.5115111179 -2.1666732537
N -6.0492578092 0.2233472272 -0.8643409757
H 1.6185200969 -1.6422715703 0.2196621141
H 2.5278729597 0.0174661476 2.6167000911
H 2.3383774038 -1.7340654047 2.5367630525
H 4.4178305724 -1.9513538684 1.4391532353
H 5.7752947375 -0.2122727093 1.8737345628
H 3.3070883117 -2.4251156248 -0.8731831953
H 4.0816301850 -1.3824939998 -2.0870682370
H 5.0596649125 -2.1682977898 -0.8385534053
H 5.0634625469 1.0883565876 0.1645812314
H 3.2336043388 1.7059133078 1.2556876284
H 1.7175089748 2.1296676479 0.4730766156
H 3.2241972530 2.2778182355 -0.4244967815
H 2.4393312328 0.8620123532 -2.2998189220
H 1.8585554463 -0.7781316605 -2.0057502532
H 0.4256898218 1.7995897058 -1.2181467473
H -0.0348337924 0.6729626520 -2.4759324031
H -0.4523169390 -1.1023850855 -0.8540969216
H 0.3060298890 0.8287250718 1.3778782010
H -0.0416677994 -1.1295369112 2.8221020379
H -0.4639439127 -2.1188465148 1.4250701972
H -2.0174050053 0.3058619220 2.4694098305
H -2.5207983232 -1.3728596445 2.5791367803
H -2.6170953174 -1.5480669161 0.1183612363
H -4.6449267049 -1.0099925039 1.2839440568
H -4.2155538896 0.6896004203 1.4387922833
H -2.1811477385 1.0855514474 -2.4387821990
H -2.2113510075 -0.6630429035 -2.2505354670
H -1.4619766662 2.5303747722 -0.5885200141
H -3.0561126219 2.1888795741 0.0643289434
H -1.6264083016 2.0146331034 1.0927949074
H -4.9095979458 0.7982355093 -3.7388556188
H -6.8412847926 0.1276206391 -0.2507813363
