55
CONF369
C -8.8702487792 -0.5471624298 0.6304236783
C -7.3880112262 -0.6561441252 0.8946490069
O -6.7078381909 -0.0099033814 -0.2216497999
C -5.3565612028 -0.0012905391 -0.1513573270
O -4.7091394730 -0.4851456075 0.7625981800
N -4.8541439731 0.6272439851 -1.2594013345
C -3.5118831327 0.8515981095 -1.5892738430
C -2.4474985360 0.5524562610 -0.7338998828
C -1.1462998985 0.7947588329 -1.1591218183
C -0.8857154301 1.3827838512 -2.3973567625
C -1.9521865793 1.7046072545 -3.2364528706
C -3.2505899242 1.4238175440 -2.8444065148
S 0.7970534342 1.7159708159 -2.8781462491
C 1.4316437220 2.1578839451 -1.2744464839
C 2.4039377150 3.1476566705 -1.1364700993
C 2.8638337611 3.4856941460 0.1323648506
C 2.3240748665 2.8735408095 1.2627026529
C 1.3423665133 1.8977285437 1.1266454971
C 0.9277020256 1.5047392046 -0.1438566867
N -0.0329696266 0.4638308109 -0.3267426105
C 0.2135408099 -0.8686309251 -0.0117812940
O -0.6076349400 -1.7401087564 -0.2745130645
C 1.5425529250 -1.1776695833 0.6448760275
C 1.8676222013 -2.6655420070 0.5583355095
N 3.1011235594 -2.9973754705 1.2794110291
C 4.2943542952 -2.4909292271 0.5852220731
C 5.5485021961 -2.8838512163 1.3474327930
O 5.6546684335 -4.3055416412 1.4845888350
C 4.4961480155 -4.8115051178 2.1590028746
C 3.2249416355 -4.4566133754 1.4081973753
H -9.1401877142 -1.0510470992 -0.3018568470
H -9.1814600375 0.4995644717 0.5721159071
H -9.4145591139 -1.0238959171 1.4506466368
H -7.0577090653 -1.6981862557 0.9472936420
H -7.0993152724 -0.1479667319 1.8198857877
H 1.0503289360 -3.2334216091 1.0138496790
H -1.7673777061 2.1727047848 -4.1977125575
H -4.0748756166 1.6678320822 -3.5075039754
H 2.7904598514 3.6524939971 -2.0160551343
H 3.6259071238 4.2508578598 0.2377331141
H 2.6597035569 3.1623593114 2.2530052096
H 0.9068295343 1.4225662635 1.9992783672
H 2.3214501960 -0.5643608505 0.1825605361
H 1.4975428080 -0.8784032369 1.6991530673
H 1.9242352634 -2.9747475774 -0.5030655291
H 4.3514432158 -2.8881196344 -0.4479470587
H 4.2576842191 -1.3978339261 0.5245863363
H 6.4398297210 -2.5531017122 0.8066834729
H 5.5402941355 -2.4162174827 2.3455707725
H 4.6146674991 -5.8973081542 2.2163200578
H 4.4553220476 -4.4000713579 3.1807449792
H 2.3607962996 -4.8426099343 1.9624197882
H 3.2398237747 -4.9479825159 0.4149220810
H -2.6200715257 0.1201768984 0.2396607629
H -5.5394849561 0.9437003765 -1.9312948224
