37
CONF37
C 4.9869296881 -1.2946834248 -0.5186159527
C 3.8717519256 -0.2659503233 -0.6909612926
C 2.5453497778 -0.7430017854 -0.0964415083
C 1.4431443522 0.2944798294 -0.2991940679
C 0.0817719518 -0.0278978570 0.3879250507
C -0.4647425614 -1.3893138011 -0.1494765022
N -1.8296067988 -1.6406754988 0.2688209276
C -2.9709853191 -1.4394418250 -0.4215834188
N -4.0224196121 -1.6808584832 0.3513229433
C -3.4487221778 -2.0224175265 1.5395153559
N -2.1215716116 -2.0098719793 1.5408163672
C 0.3431063354 -0.1521345787 1.8237960575
N 0.6099608296 -0.2422645214 2.9445821637
C -0.9459162707 1.0756243068 0.1264268066
C -1.2207607669 1.4518801805 -1.1917102021
C -2.1860372225 2.4102042986 -1.4756001944
C -2.8836936213 2.9926110093 -0.4243990332
Cl -4.1080150649 4.2059920452 -0.7746565169
C -2.6382044371 2.6360168176 0.8933998646
C -1.6682769482 1.6730570513 1.1587446192
H 5.9275842660 -0.9364092247 -0.9479907273
H 4.7279997435 -2.2376430815 -1.0125987644
H 5.1596153640 -1.5087271127 0.5418604932
H 4.1593777264 0.6789207030 -0.2123046764
H 3.7309871079 -0.0461831526 -1.7573005024
H 2.6828800811 -0.9444835425 0.9740212947
H 2.2675642222 -1.6937148291 -0.5677685204
H 1.2480407026 0.4133892766 -1.3694920776
H 1.7728665288 1.2685378189 0.0799007637
H -0.4508798343 -1.3539657808 -1.2418897183
H 0.1634289033 -2.2162338683 0.1875940580
H -2.9810707008 -1.1359040018 -1.4604647078
H -4.0159019700 -2.2938444085 2.4210225841
H -0.6956719355 0.9921089255 -2.0219779188
H -2.3922118638 2.6939108203 -2.5012684638
H -3.1916455449 3.0949478301 1.7045684693
H -1.4860260329 1.3939403764 2.1913762537
