82
CONF7
C -4.2562242985 3.1006529618 -0.8197104167
C -4.2352448436 1.9909864662 -1.8341200653
C -4.2498582021 2.2500460895 -3.1465872182
C -4.2605001788 0.5719757969 -1.3182968376
C -5.6717267549 0.2203827219 -0.7198923681
C -5.4203837702 -0.4020698761 0.6714655860
C -3.9822361609 -0.9278499861 0.5902136187
C -3.2927343971 0.2376483521 -0.1596102414
C -1.8242477905 -0.0567409554 -0.4646794240
C -1.1333603961 1.0264566191 -1.2956650186
C 0.3346551422 0.6962738402 -1.5927099141
C 1.1371295303 0.3025606512 -0.3419464386
C 2.6790103430 0.1315425482 -0.6054383851
C 3.2184352997 1.4828329259 -1.1292916826
C 4.7429740292 1.5708101153 -1.1005502900
C 5.2912252580 1.3302746595 0.2967182420
C 4.8864558408 -0.0375956725 0.8807190959
C 3.3305883745 -0.1303759233 0.7878092392
C 2.7452075841 -1.3926187403 1.4233194212
C 1.2478623833 -1.2253751049 1.6859978737
C 0.4266216710 -0.8549652282 0.4332799785
C -1.0268204894 -0.3397949061 0.8509332988
C -1.7622958872 -1.3890617233 1.7299140503
C -3.2658446597 -1.1238303835 1.9263019586
C -0.9561324580 0.9447975589 1.7106304968
C 0.3242559717 -2.1316316120 -0.4318689458
C 5.6264048113 -1.1893057081 0.1835602281
C 5.3008618926 -0.0448997463 2.3655424866
O 6.7297400705 1.4287055212 0.3052087395
C 2.9902344027 -0.9479195129 -1.6640649457
C -3.9710984351 -2.2326809172 -0.2319897718
O -4.7186941039 -3.2906105974 0.3931986244
H -3.2907055045 3.1763113892 -0.3054022337
H -4.4650221814 4.0630110350 -1.2934611392
H -5.0091629222 2.9208111679 -0.0430014738
H -4.2850453743 3.2691406546 -3.5226877526
H -4.2186895548 1.4470256682 -3.8789459469
H -4.0536907796 -0.0912972752 -2.1670207991
H -6.3056597970 1.1092242460 -0.6526565124
H -6.1858202639 -0.4811657706 -1.3838791484
H -5.4708052234 0.3706931701 1.4484688931
H -6.1461518691 -1.1806449881 0.9249207973
H -3.3394836150 1.0878405856 0.5344507666
H -1.8055805280 -0.9724925543 -1.0676755069
H -1.6695894034 1.1496403391 -2.2425665639
H -1.2012966832 1.9937914494 -0.7830655108
H 0.7932043945 1.5671151779 -2.0715918381
H 0.3645408354 -0.1084716766 -2.3357975537
H 1.1051522284 1.1674167946 0.3326464988
H 2.8053068185 2.2938060859 -0.5117551901
H 2.8728543377 1.6551870439 -2.1541076954
H 5.1967553594 0.8540482054 -1.7947715382
H 5.0550580815 2.5683534380 -1.4376656028
H 4.8741612352 2.1008365575 0.9697918903
H 2.9787824481 0.7112663291 1.4107287242
H 3.2346531815 -1.6021471409 2.3793018708
H 2.9346597320 -2.2674955031 0.7921755163
H 1.1405754439 -0.4495694767 2.4516646711
H 0.8474222673 -2.1509060661 2.1181107660
H -1.6438348137 -2.3928697631 1.3129110775
H -1.2828522558 -1.4159135206 2.7154588175
H -3.7066960310 -1.9508765076 2.4991032247
H -3.4237515250 -0.2246682397 2.5342992466
H -1.9488034391 1.2118270801 2.0794781294
H -0.5733402017 1.8157358097 1.1784978192
H -0.3297076752 0.7920951142 2.5923761385
H 1.2899495150 -2.6347178608 -0.4876457485
H 0.0038967758 -1.9381200261 -1.4565072747
H -0.3757441034 -2.8501937571 0.0011433339
H 5.5537036542 -1.1479786329 -0.9042113636
H 6.6873861707 -1.1629181045 0.4482142527
H 5.2233728286 -2.1522383075 0.5121668414
H 5.1922688564 -1.0372635012 2.8119084512
H 4.6954532161 0.6612446701 2.9461510309
H 6.3512644130 0.2442705636 2.4589737115
H 6.9562957178 2.3081266037 -0.0215013500
H 3.1069624441 -1.9470564108 -1.2419495773
H 2.1932884535 -0.9955818063 -2.4102113107
H 3.9121589217 -0.7211888315 -2.2046022047
H -4.4512831994 -2.0757229524 -1.2018238827
H -2.9467942567 -2.5722387002 -0.4244259649
H -4.2238782897 -3.5837019386 1.1675974716
