39
CONF1
C -3.5388961262 -1.6356004870 1.6521825611
C -2.7770252237 -0.7962284002 0.6262107344
C -3.4338763204 0.5716204651 0.4427617336
C -1.2616062213 -0.6551842605 0.9876021442
C -1.0163234950 0.0678469882 2.3218772916
C -0.6625903952 -2.0013465371 1.0987510600
N -0.1876669512 -3.0445753139 1.2461111167
N -0.5328511592 0.0808231336 -0.0514782050
C -0.3040228717 -0.3879780058 -1.2969617186
O -0.7278139841 -1.4588086178 -1.7252306174
C 0.5132041310 0.5416354343 -2.2027339965
C -0.4116748996 1.4534266636 -2.9906846921
O 1.3931385749 1.3996718752 -1.4516630927
C 2.4541056795 0.8335937142 -0.8117064432
C 3.2775161516 1.6965786778 -0.0720477092
C 4.3831301188 1.2289899975 0.6215186019
C 4.6667010471 -0.1311972443 0.5792806816
C 3.8709598929 -1.0132784276 -0.1351889130
C 2.7659315217 -0.5272698547 -0.8279686531
Cl 6.0640158070 -0.7340246561 1.4570932798
Cl 2.9008429576 3.4037831253 -0.0184819210
H -3.6161023937 -1.1197084986 2.6143647463
H -3.0704633942 -2.6109664511 1.8169395137
H -4.5551642704 -1.8113902609 1.2881963135
H -2.7975860688 -1.3221295782 -0.3339263990
H -3.5173583316 1.1091240872 1.3926975117
H -4.4464665957 0.4291512824 0.0541770110
H -2.8869423532 1.1980946985 -0.2677554826
H 0.0559584727 0.1167414570 2.5285355860
H -1.5066238841 -0.4626170926 3.1383331965
H -1.4161090727 1.0830072722 2.2637973490
H -0.1139612695 0.9622499468 0.2124021699
H 1.0937263741 -0.0928091641 -2.8822302627
H -0.9711546579 2.1055846504 -2.3140746022
H 0.1723032411 2.0661183795 -3.6815621925
H -1.1163378755 0.8467018263 -3.5645890292
H 5.0052945256 1.9150709533 1.1832891386
H 4.0984214723 -2.0724628217 -0.1565312308
H 2.1533675507 -1.2322390673 -1.3770450801
