24
CONF5
C -5.0058334893 -0.2695914387 0.2314185267
O -3.5910761993 -0.5271839103 0.1194848773
C -2.8123619702 0.5780850523 0.1504937551
O -3.2512422035 1.7018752621 0.2634424284
C -1.3664531769 0.2488011778 0.0303469617
C -0.9035094964 -1.0643748991 -0.1018989298
C 0.4564289584 -1.3090300770 -0.2102293332
C 1.3663726310 -0.2487015138 -0.1879148619
C 0.9034208697 1.0644811151 -0.0557488824
C -0.4565155431 1.3091394306 0.0525687796
C 2.8123326760 -0.5780438682 -0.3074078361
O 3.2512246731 -1.7018812912 -0.4198553318
O 3.5910722206 0.5271482776 -0.2756669760
C 5.0059257114 0.2694796952 -0.3859526545
H -5.4833117872 -1.2481425492 0.1877658884
H -5.3427087880 0.3641848961 -0.5929592182
H -5.2273793425 0.2284983429 1.1788450314
H -1.6096962521 -1.8851945165 -0.1190038901
H 0.8374434514 -2.3188619076 -0.3131776071
H 1.6096125631 1.8852868315 -0.0385150090
H -0.8375150202 2.3189583395 0.1556896064
H 5.4835542109 1.2478526050 -0.3401103196
H 5.2286888488 -0.2271730478 -1.3338500692
H 5.3415253377 -0.3656119003 0.4379283715
