32
CONF2
C 3.4642852440 -0.3437468077 0.9052640027
C 2.7665957561 -1.1158524832 -0.0062176993
C 1.8491640820 -0.5351294827 -0.8900873657
C 1.6669590155 0.8601065231 -0.8511807264
C 2.3734067575 1.6535252063 0.0361270775
C 3.2555662068 1.0307736785 0.9098681907
N 3.9954148481 1.8652000612 1.8665247772
O 4.7495784068 1.3006660847 2.6524933200
O 3.8181251104 3.0788920891 1.8288823268
Cl 0.5238574865 1.6221517333 -1.9314415653
N 1.1490097645 -1.3562549141 -1.7974821132
S -0.0830732390 -2.3780096856 -1.1409553634
O 0.5380046863 -3.1485345858 -0.0618710338
O -0.6924261603 -3.0245506306 -2.3050295072
C -1.2544646255 -1.2334513958 -0.4165656084
C -2.3133008855 -0.7817333544 -1.1927833824
C -3.1785785936 0.1753305992 -0.6739831482
C -2.9492249800 0.6687609775 0.6183851272
C -1.8863952344 0.2043674644 1.3866057549
C -1.0289672701 -0.7570377764 0.8704759263
Cl -3.9859733378 1.8798824610 1.3214891892
C -4.3277513564 0.6629754229 -1.5211289917
F -5.5250594429 0.4397137319 -0.9307807647
F -4.2427282893 1.9919799280 -1.7670210557
F -4.3600983261 0.0437177099 -2.7193463696
H 4.1732418142 -0.7946305711 1.5871116431
H 2.9284736781 -2.1853867180 -0.0546895539
H 2.2288513769 2.7255616796 0.0634792440
H 0.7491610648 -0.8429199591 -2.5839603755
H -2.4633456708 -1.1707105123 -2.1923562035
H -1.7338028687 0.5930257948 2.3864560867
H -0.2045048183 -1.1286817685 1.4685622614
