74
CONF38
C -0.5813714325 -0.9296495746 0.2257110553
C 0.2314421572 -2.1718821266 0.5687804473
O -0.6827835715 -2.9851426776 1.3657622501
C -1.6584352945 -2.2080390209 1.9189473981
O -2.4766882734 -2.6561647206 2.6788821704
C -1.4507268136 -0.7790024684 1.4617891379
C -2.6542396599 0.1216808631 1.1733870670
C -3.6670238873 -0.5138386705 0.2254792644
C -4.5667108039 -1.4535794972 0.7304162485
C -5.4552527327 -2.0838053467 -0.1332865041
O -6.3705402331 -3.0369000484 0.2354111290
C -6.3127269499 -3.5044311940 1.5838534453
C -5.4828318497 -1.7773615516 -1.4979755792
O -6.3590938715 -2.3868909415 -2.3434167743
C -4.5941664426 -0.8196730946 -1.9956101922
O -4.6942418388 -0.5693315070 -3.3326133874
C -3.8185461334 0.4110723072 -3.8739944807
C -3.6878857109 -0.1980221980 -1.1341271329
C -2.1129517454 1.4354135568 0.6284322708
C -2.9618808522 2.5579590137 0.7037304530
C -2.5118369573 3.7415229957 0.1778962549
C -1.2648858418 3.8459678768 -0.4304162957
O -1.0895293823 5.1197955907 -0.9142754971
C -2.1722978636 5.8792047898 -0.3525283010
O -3.1661643399 4.9450563797 0.1027850021
C -0.4252801711 2.7688717471 -0.5327629609
C -0.8579829286 1.5397382889 0.0109326833
C 0.1227867242 0.3823010401 -0.0643885929
O 1.1675467655 0.6063561862 0.9234069490
C 2.4464724282 0.7129589649 0.4150500142
O 2.8750587154 -0.5965805185 -0.0092401415
C 4.2018261049 -0.5713279011 -0.5195489009
C 4.5947229477 -1.9456880890 -1.0347173621
O 5.9694989036 -1.8990639219 -1.4248369336
C 6.8201174711 -1.5245199725 -0.3546902330
C 8.2365132735 -1.5083235333 -0.8630695698
O 6.5044745260 -0.2190763323 0.1299456140
C 5.1592529457 -0.1858925974 0.6044317815
C 4.8192102852 1.2083179874 1.0787368333
O 5.5946304224 1.6203058072 2.2024102158
C 3.3567549308 1.2523874518 1.5194603075
O 2.9527760743 2.5844501211 1.7900057782
H -1.2389738163 -1.1537993806 -0.6252838311
H 0.5303683349 -2.7699113952 -0.2942141823
H 1.1078470835 -1.9361776242 1.1777216667
H -0.8502520354 -0.3048029704 2.2554583678
H -3.1676322575 0.3269834996 2.1206029730
H -4.5409726022 -1.7035263958 1.7824676402
H -5.3136307353 -3.8868396060 1.8246291757
H -6.5787629498 -2.7063208806 2.2879254113
H -7.0462507050 -4.3087121114 1.6523637506
H -6.8704515986 -3.0112877746 -1.8101114144
H -2.7660312080 0.1180516466 -3.7576551589
H -4.0615422750 0.4716205384 -4.9358414846
H -3.9754076686 1.3922981336 -3.4061998773
H -3.0069232970 0.5534615185 -1.5123649655
H -3.9462935198 2.4765059581 1.1518697334
H -1.8016004434 6.4604401408 0.5056982209
H -2.6051846141 6.5206140329 -1.1245909380
H 0.5456389410 2.8610599773 -1.0065729347
H 0.5893100847 0.3588875232 -1.0585654236
H 2.4850561891 1.3929817046 -0.4595376105
H 4.2960724426 0.1603994538 -1.3406772642
H 4.0209044314 -2.2307382493 -1.9201240867
H 4.4330524699 -2.6980131272 -0.2445849852
H 6.6804828539 -2.2423534539 0.4779036457
H 8.3212753978 -0.7882611294 -1.6805240635
H 8.5085155345 -2.5000204680 -1.2298357764
H 8.9165708480 -1.2222318348 -0.0580479290
H 5.0367799265 -0.9015483479 1.4375021245
H 4.9567661922 1.9114200703 0.2391790458
H 6.5223668176 1.5874338873 1.9398502628
H 3.2310448096 0.6066060975 2.4041926163
H 3.6108475600 2.9566082139 2.3906951348
