23
CONF3
C 2.4798141598 0.1589544704 -1.3334391863
C 3.5678445951 0.8295691307 -0.7942015488
C 4.0747944350 0.4642216600 0.4521174035
C 3.4849938784 -0.5807400957 1.1641821923
C 2.3883035699 -1.2564888274 0.6355989923
C 1.9050915755 -0.8754103837 -0.6057119623
O 0.8613300519 -1.6176601942 -1.1463443936
C -0.3549613948 -1.0195438565 -1.2962648154
C -1.2894702045 -1.6672978768 -2.1142381773
C -2.5661348298 -1.1228906689 -2.2728010986
C -2.9145257312 0.0755809536 -1.6269945751
C -1.9609894189 0.6978023448 -0.8182036993
C -0.6943827103 0.1600844608 -0.6474852617
Br -0.7589073498 -3.2756786042 -2.9613043963
Br -2.3359445334 2.3161934853 0.1082367882
Br -4.6376118464 0.8326200729 -1.8428892571
Br -3.8263938282 -2.0074041868 -3.3770585321
Br 4.1259894145 -1.1289023539 2.8693919436
Br 5.5736034200 1.4234563157 1.1259135632
H 0.0234274452 0.6532277978 -0.0040786390
H 4.0343549862 1.6372851731 -1.3457719453
H 1.9164787239 -2.0677005386 1.1769709582
H 2.0843831974 0.4333607016 -2.3053307121
