35
CONF20
C -3.3840869981 -1.0953077295 1.3161644023
C -2.7851929240 -1.3147866380 -0.0518565763
O -2.3687461428 -0.0081400197 -0.5565631059
P -1.1571975815 0.1744645229 -1.5866144553
S -0.5942641230 -1.3812196671 -2.5795171572
O -1.5733807051 1.4924356643 -2.3871219634
C -2.2614700811 1.3914091151 -3.6653066916
C -3.6980953741 0.9413729122 -3.5035788473
O 0.0050581190 0.9420549788 -0.7018403831
C 0.7145172782 0.2878286504 0.2385295364
N 0.2270508190 -0.7447698172 0.9726574041
C 1.2568077536 -1.0080170895 1.7577831358
N 2.2935720862 -0.1812925311 1.5200523619
N 1.9494311826 0.6736951507 0.5147181244
C 3.6250925799 -0.1033560903 2.1357046260
C 3.7996859990 1.2501804186 2.8181880109
C 4.6964904064 -0.3719573674 1.0827626899
Cl 1.2843052534 -2.2476340362 2.9479808134
H -2.6267282747 -0.7008709456 1.9980616282
H -3.7470976237 -2.0496017560 1.7106272207
H -4.2234074965 -0.3960179413 1.2710540819
H -3.5138952991 -1.7216615008 -0.7615111149
H -1.9193823804 -1.9787412134 -0.0088764956
H -2.2024709669 2.4036365231 -4.0723399576
H -1.6964418810 0.7114594114 -4.3125499930
H -3.7487837657 -0.0917244170 -3.1476425282
H -4.2035514746 0.9909893164 -4.4734634186
H -4.2298875943 1.5845826576 -2.7973909625
H 3.6384505968 -0.8995064730 2.8868646406
H 4.7730751820 1.2857087025 3.3150182514
H 3.7536729221 2.0543877346 2.0794750844
H 3.0201276967 1.4170973837 3.5665601513
H 4.5429994511 -1.3433655624 0.6051531117
H 5.6823055945 -0.3666581420 1.5557857980
H 4.6714369512 0.4033254990 0.3130325666
