65
CONF341
C -3.7942806424 3.7314051254 -0.6660674728
C -2.5875189691 3.7618765390 -1.6010950933
C -2.0269942484 2.3661114342 -1.8960019465
C -0.8501314425 2.4211333939 -2.8823073597
C -1.5367083788 1.7162027444 -0.6194514149
O -0.7951730350 2.2539019780 0.1815730103
O -1.9827101679 0.4502706536 -0.4982604496
C -1.5223595932 -0.3130533592 0.6630707093
C -2.4480943648 -0.0618294694 1.8408472199
C -1.9359480893 -0.8063703612 3.0828661609
C -1.5178584887 -2.2026622529 2.7300204881
C -1.3241543559 -2.6546480695 1.4761647242
C -1.5272058568 -1.7768850658 0.2536922213
C -0.4801381703 -2.1214445549 -0.8296603752
C -0.6802239381 -3.5968939347 -1.2338019948
C -0.6314065496 -4.4789917760 -0.0162768104
C -0.9100145655 -4.0248384275 1.2172576899
C 0.2840351898 -4.0692418019 -2.3251381977
C 0.9509231662 -1.7889333390 -0.3496402927
C 1.5065493240 -0.5248556577 -1.0095250137
C 2.7604850534 0.0113455271 -0.3504230233
C 3.3664856359 1.1941354147 -1.0939624490
C 4.3582778085 1.9891606309 -0.2310782309
C 4.6205686973 1.2659596760 1.0974314998
C 3.3102473187 0.9903065711 1.7809892870
O 3.0451656110 1.2680366556 2.9330428775
O 2.3633107968 0.4250846779 1.0043021903
O 3.7589994592 3.2716291847 0.0192792359
C -0.7881402834 -0.0556337683 3.7827264962
H -4.6017162420 3.1243353857 -1.0897947834
H -3.5296905380 3.3060878311 0.3087924816
H -4.1836387647 4.7391128234 -0.4934170658
H -2.8661091611 4.2195142300 -2.5577295675
H -1.7886390264 4.3779364253 -1.1717213311
H -2.8198734306 1.7372557555 -2.3154932654
H -0.0360875109 3.0249607420 -2.4686424243
H -0.4647264120 1.4195327395 -3.0981496977
H -1.1774062337 2.8747463493 -3.8224511525
H -0.5083238776 0.0191290662 0.9021667876
H -2.5128813263 1.0123062857 2.0430800466
H -3.4509265869 -0.4195293407 1.5767277210
H -2.7636693142 -0.8722413510 3.8031335658
H -1.3450181993 -2.8859311889 3.5616990141
H -2.5216385559 -2.0031806836 -0.1627252731
H -0.7013530715 -1.5112993954 -1.7152541576
H -1.6949986206 -3.6654667254 -1.6596215983
H -0.3506111790 -5.5214593624 -0.1569581071
H -0.8361613589 -4.6907685557 2.0750937045
H 0.0040933769 -5.0696494901 -2.6708222752
H 0.2554124720 -3.3907007816 -3.1842513901
H 1.3156561942 -4.1222731145 -1.9642067389
H 0.9539300632 -1.6632965505 0.7394504683
H 1.6334739681 -2.6199347141 -0.5534371742
H 1.7369186800 -0.7256922166 -2.0635277175
H 0.7614954793 0.2798449326 -1.0033192622
H 3.4997093450 -0.7926358235 -0.2329072865
H 2.5649136645 1.8701990176 -1.4107411478
H 3.8550831610 0.8137341836 -1.9957724081
H 5.3120991204 2.1229802226 -0.7565387167
H 5.2495582969 1.8630915563 1.7608441522
H 5.1365518041 0.3171646815 0.9001570960
H 4.3856629617 3.7969070873 0.5341200009
H -1.1234259797 0.9316546921 4.1169955033
H 0.0639115267 0.0774322822 3.1081401294
H -0.4375625082 -0.6141463589 4.6565080253
