39
CONF13
C -2.6727598085 3.1600395984 1.5212295870
C -1.8770712247 2.0306294478 0.9451036734
O -1.7453080511 1.9164283550 -0.2721086018
C -1.2978406923 1.0537915551 1.9294142968
C -0.6498982887 -0.2312441635 1.3880374177
C -1.5592694683 -1.1218075448 0.5464700684
C -1.0144521588 -2.2319327058 -0.1104351604
C -1.8219477802 -3.1158595965 -0.8171600040
C -3.1996956996 -2.9124177843 -0.8785338224
C -3.7553242851 -1.8212404823 -0.2186591155
C -2.9424825084 -0.9361709044 0.4887651449
C 0.7327235333 -0.0141818412 0.7964413782
C 1.0013283601 0.2561401079 -0.5275447586
C 2.3595499794 0.2733642338 -1.0163850800
C 2.6932540915 0.4709948394 -2.3662186944
C 4.0191565720 0.4626340034 -2.7638222558
C 5.0346482565 0.2676169545 -1.8199182380
C 4.7281717715 0.0803935687 -0.4800252484
C 3.3917115048 0.0826332356 -0.0920696076
O 3.1265270865 -0.0915246925 1.2345641518
C 1.8257260069 -0.1558360611 1.7237808710
O 1.7261915580 -0.3327999983 2.9288595556
O 0.0614048838 0.4869577602 -1.4397783461
H -2.2087870400 3.5461603050 2.4328497456
H -3.6557239513 2.7622390124 1.8060312382
H -2.8102131136 3.9519034407 0.7842152888
H -0.5526779310 1.6092629623 2.5158062649
H -2.0884576757 0.8147542562 2.6531888364
H -0.4489130880 -0.8141861184 2.2956967379
H 0.0576708685 -2.4025230759 -0.0692186582
H -1.3735005741 -3.9669149755 -1.3208403737
H -3.8319506286 -3.5991980822 -1.4324651320
H -4.8272190368 -1.6512209911 -0.2518071817
H -3.4107116056 -0.1000915078 0.9971983220
H 1.8989983180 0.6257358379 -3.0870784306
H 4.2719065867 0.6107892531 -3.8081270679
H 6.0732521387 0.2645318759 -2.1342434069
H 5.5004871084 -0.0667272971 0.2670522981
H -0.7585033050 0.8388772247 -0.9840052087
