63
CONF41
C -8.5106654406 2.8071735951 -2.7168748867
C -7.5223163330 1.8313442754 -2.0821328353
C -7.8851863610 1.4765035798 -0.6407371737
C -6.9093992743 0.4938780763 0.0047447604
C -7.2659866625 0.1711104952 1.4564684889
C -6.3962920301 -0.9162387235 2.0933547391
C -4.9146676344 -0.5530882117 2.2010920523
C -4.1057690320 -1.6090104647 2.9555032790
C -2.6299060019 -1.2508879786 3.1505389666
C -1.8213801089 -1.1774286134 1.8543864105
C -0.3347446141 -0.9220759046 2.0988100712
C 0.4891659098 -0.8606307225 0.8135570518
C 1.9727349282 -0.5961421941 1.0650483265
C 2.8070344335 -0.5554638518 -0.2141832854
C 4.2876110151 -0.2814541612 0.0447988954
C 5.1305439076 -0.2538651357 -1.2290478208
C 6.6084367517 0.0273218761 -0.9629304830
C 7.4572357540 0.0482514930 -2.2332231029
C 8.9352573461 0.3261850311 -1.9588005891
C 9.7686994658 0.3518081071 -3.2332404366
O 11.1622708813 0.5577753847 -2.9869301526
H -9.5210205044 2.3844627723 -2.7362094579
H -8.5550243536 3.7435730935 -2.1501576057
H -8.2307513594 3.0518622760 -3.7460427722
H -6.5124002706 2.2615789741 -2.1043366915
H -7.4760632028 0.9111601580 -2.6794165949
H -8.8991257121 1.0527977883 -0.6160196831
H -7.9250060191 2.3964551202 -0.0402797916
H -5.8960724853 0.9123690728 -0.0480090889
H -6.8884258418 -0.4375965487 -0.5791766795
H -8.3169455664 -0.1448866268 1.4991455577
H -7.1973636925 1.0886591149 2.0576589586
H -6.7806592098 -1.1344494162 3.0988349965
H -6.4986202367 -1.8468865556 1.5174926985
H -4.4965587807 -0.4162465390 1.1972523659
H -4.8141197251 0.4149188511 2.7139113696
H -4.1783982554 -2.5686333826 2.4242523984
H -4.5666901520 -1.7682740639 3.9395273940
H -2.5560307869 -0.2896393357 3.6785532757
H -2.1668191746 -1.9977373473 3.8092487927
H -1.9431693959 -2.1180391112 1.2983593675
H -2.2169586838 -0.3843324124 1.2069685704
H -0.2152487618 0.0193994491 2.6531456298
H 0.0674704863 -1.7115652762 2.7491830356
H 0.3761120406 -1.8056444228 0.2640793405
H 0.0853200067 -0.0761342076 0.1583150352
H 2.0852089514 0.3555300505 1.6030764563
H 2.3714163049 -1.3726213790 1.7329760571
H 2.7017983328 -1.5104481969 -0.7476973890
H 2.4062101708 0.2158506343 -0.8867181080
H 4.3922162483 0.6776544962 0.5710779454
H 4.6844512415 -1.0475165246 0.7256674304
H 4.7321683059 0.5083047270 -1.9133901193
H 5.0316644376 -1.2154341116 -1.7517959690
H 7.0046342116 -0.7319019147 -0.2744833693
H 6.7068169969 0.9910761448 -0.4442084169
H 7.3585333927 -0.9154748827 -2.7517479591
H 9.3445134736 -0.4369793001 -1.2850966684
H 9.0338268955 1.2916085527 -1.4407780324
H 9.3768978289 1.1148036624 -3.9261726338
H 9.7032621699 -0.6154109393 -3.7436931393
H 11.2592178780 1.4077287842 -2.5440240251
H 7.0617241308 0.8085059076 -2.9212594029
