42
CONF78
C 5.3762443750 -2.2524508719 1.7840895988
C 4.3297634143 -1.2803978523 1.3537208647
N 3.1658672183 -1.2772395418 2.0199632472
C 2.2676415548 -0.3933353872 1.5644277537
N 2.4567841501 0.4579247538 0.5504055443
C 3.6622685564 0.3735027535 -0.0206607277
N 4.6315877082 -0.4773506126 0.3239442050
O 3.9694408294 1.1938377970 -1.0166672490
C 2.9912172443 2.1966265546 -1.3970159818
N 1.0592021213 -0.3916212472 2.2266440448
C -0.1363928586 0.2887637449 1.9666279525
O -1.1182089983 0.0892288175 2.6638425088
N -0.1028204369 1.1601744461 0.9043136808
S -1.5221686441 1.7656259769 0.1769629014
O -2.1262457810 2.7531843002 1.0757226905
O -1.0557628178 2.1893982861 -1.1509857409
C -2.6479352312 0.3869482947 0.0389705818
C -3.9484045280 0.5793975692 0.4948367563
C -4.8913566041 -0.4278078424 0.3368957247
C -4.5161004841 -1.6229165205 -0.2687468229
C -3.2137062316 -1.8298720251 -0.7126082033
C -2.2556066879 -0.8238352709 -0.5629435111
O -0.9607191314 -0.9403323092 -0.9366304176
C -0.5389445936 -2.1851769921 -1.5197185322
C 0.9476813245 -2.1307033257 -1.7244596889
Cl 1.4151687589 -0.8642355954 -2.9548359429
H 5.5912776842 -2.9425593403 0.9614256479
H 5.0515230298 -2.8151864226 2.6585816091
H 6.3057118338 -1.7193554503 2.0054041776
H 3.4620272957 2.7473553217 -2.2098705923
H 2.7843639787 2.8585857811 -0.5525256053
H 2.0717081045 1.7187555742 -1.7414393325
H -4.2108586207 1.5178877714 0.9688000507
H -5.9064403640 -0.2785242431 0.6864693105
H -5.2440706034 -2.4173879268 -0.3979552226
H -2.9542507060 -2.7741882822 -1.1736388794
H -1.0687628369 -2.3567660174 -2.4638817861
H -0.7487335425 -3.0119743442 -0.8266803259
H 1.4729484314 -1.8812007230 -0.8011065562
H 1.3006154740 -3.0898253800 -2.1068526059
H 0.7366695833 1.1454230914 0.3097214924
H 0.9934503723 -1.0373266324 3.0038821100
