51
CONF21
C 1.9273102265 2.7461011859 0.0892328554
C 2.3279022186 1.3191131990 -0.1830517033
C 1.9188950759 0.6790117196 -1.3656426795
C 2.3492818910 -0.6149445673 -1.6616383333
C 3.1834081219 -1.2995619064 -0.7906199332
C 3.5753448319 -0.6885524547 0.3918501575
C 3.1489607429 0.6043043167 0.7135774819
C 3.5672493319 1.1616530140 2.0237776291
C 2.6162403628 1.5526344017 2.9733686848
C 3.0113775038 2.0309811424 4.2171374324
C 4.3640944803 2.1274555311 4.5334120079
C 5.3183384620 1.7370668219 3.5989649429
C 4.9226182241 1.2546531050 2.3554779194
C 0.9953584966 1.3414720073 -2.3546379764
O -0.1920940828 0.5201171773 -2.5835026919
C -1.1171577476 0.5607857237 -1.5962633190
O -1.0360065637 1.2758024505 -0.6201728365
C -2.2212074249 -0.3810394325 -1.8932417059
C -3.0512498262 -0.8824771130 -0.7063770751
C -3.6801686664 0.0170573097 -1.7512767061
C -4.0493333170 1.4169862175 -1.3172849671
C -4.6333338434 -0.5707551871 -2.7688364047
C -3.3613225588 -2.3036893178 -0.6116236626
C -3.4825028638 -3.0072148032 0.5165431008
C -3.8044223081 -4.4756656416 0.5452573936
F -3.9468465556 -4.9705365567 -0.7053724593
F -2.8327902324 -5.1905182656 1.1538309088
F -4.9549215077 -4.7251669615 1.2097420545
Cl -3.2842792620 -2.3228959800 2.1072348524
H 0.8475143243 2.8226572485 0.2573973140
H 2.4430601730 3.1421722459 0.9634245812
H 2.1774480900 3.3904246281 -0.7596871738
H 2.0150172133 -1.0849170203 -2.5822156704
H 3.5170016948 -2.3052506566 -1.0243141258
H 4.2032676061 -1.2208476308 1.0998680555
H 1.5609104430 1.4642960585 2.7325772384
H 2.2606034594 2.3228205167 4.9447589335
H 4.6719953969 2.5021361742 5.5042026098
H 6.3748937405 1.8103869416 3.8370028556
H 5.6675976115 0.9576964597 1.6231240472
H 1.4527257955 1.4034527254 -3.3454844235
H 0.6778056835 2.3336384065 -2.0346835990
H -2.0059846905 -1.0968184156 -2.6796308174
H -2.8074329831 -0.3799784394 0.2244496452
H -5.0618642470 1.4124023087 -0.9000537073
H -3.3621186471 1.8082046142 -0.5666379834
H -4.0429425979 2.0941175046 -2.1789108349
H -4.3067898708 -1.5411952782 -3.1488747485
H -4.7226045199 0.1067522132 -3.6242687034
H -5.6291672464 -0.6927138902 -2.3291307683
H -3.5096794327 -2.8581078133 -1.5327783168
