44
CONF37
C 4.1972846380 2.7863140856 -1.3278521401
C 3.5178066646 1.4504659599 -1.0480833884
C 2.5397696708 0.9837297961 -2.1908768851
N 1.5421054721 0.1589588600 -1.5521777275
C 1.1183279848 0.5068081819 -0.1918751940
S 2.4185545347 1.6336334753 0.4652651393
C 1.1345127872 -1.0238247405 0.1535474183
C 1.5586995161 -1.2126269155 -1.3244004008
O 1.8683493717 -2.1426889926 -2.0303400781
N -0.0361184107 -1.6768948263 0.6473980578
C -1.1851654848 -1.7408752839 -0.0762578965
O -1.2596351601 -1.3046307283 -1.2230415312
C -2.3827870779 -2.3757190412 0.6570456170
C -2.9261257507 -1.3794893436 1.6629189038
C -3.2007628385 -0.0625294581 1.2853444011
C -3.7295405653 0.8480600388 2.1928034106
C -3.9872969710 0.4448480747 3.5048875722
C -3.7141563968 -0.8653239030 3.8995349871
C -3.1885700538 -1.7639990116 2.9792536701
O -4.5033843400 1.2902198783 4.4450815327
N -3.4405841948 -2.8256761936 -0.2481190876
C 1.9425750094 2.1462305205 -2.9694995397
O 0.8066010646 2.6071512554 -2.4227326569
O 2.4573359209 2.6114958591 -3.9622568042
C 4.5594615852 0.3557140325 -0.8147649160
H 3.4753793450 3.5964761652 -1.4593241445
H 4.8049961075 2.7030297700 -2.2347810343
H 4.8603836250 3.0462086906 -0.4980889680
H 3.1029641440 0.3826629092 -2.9115253314
H 0.1377876511 0.9845098066 -0.1214879242
H -0.0296480034 -2.0312790079 1.5927447202
H -2.9980010269 0.2641628656 0.2684786721
H -3.9383216368 1.8700762612 1.8875441368
H -3.9168375873 -1.1669689029 4.9221341082
H -2.9819332028 -2.7841929416 3.2910059669
H -4.6528395989 2.1598899252 4.0505194361
H -3.7868474916 -2.0221750085 -0.7660769537
H -3.0351760896 -3.4418293458 -0.9480924668
H 5.2141211082 0.2805862662 -1.6906753581
H 5.1696859918 0.5999790808 0.0583668087
H 4.0950632934 -0.6195161535 -0.6441065219
H 0.4894665700 3.3555302487 -2.9582347135
H -2.0092601739 -3.2482284002 1.2083095307
H 1.9842335116 -1.2615145927 0.7997984616
