60
CONF18
C -7.2988360828 4.5341149268 2.1437635005
C -6.7180512587 3.1230424398 2.2054214684
C -5.8747874491 2.7916218964 0.9765248034
C -5.2946386428 1.3656468556 1.0493980604
C -4.4545934556 1.0452602912 -0.1217968135
C -3.0939103439 1.0184517285 -0.3230764697
C -2.8916843528 0.6337922063 -1.7061878690
C -1.7964765519 0.4801369411 -2.5634464209
C -2.0390683151 0.1353552589 -3.8890242774
C -3.3415070116 -0.0503744171 -4.3740994312
C -4.4484301332 0.1142063211 -3.5442008071
C -4.1786303330 0.4573862869 -2.2332369392
O -5.1246976996 0.6919131781 -1.2601643330
C -2.1142467361 1.3677539556 0.7091115656
O -2.3628654614 2.2153052904 1.5686890498
C -0.8055514165 0.6578269581 0.7240002920
C 0.2906216294 1.2854103906 1.3196304725
C 1.4965957569 0.6157224703 1.4116829334
C 1.6654635284 -0.6969193035 0.9312188735
C 0.5233114881 -1.3245675890 0.4035202106
C -0.6834358647 -0.6608039452 0.2730748325
I 0.5949388454 -3.3599992277 -0.1670531772
O 2.8390884752 -1.3302104471 1.1501863063
C 3.7391027263 -1.6545676768 0.0432979008
C 3.9793048106 -0.4870681403 -0.8945400536
N 2.8228103801 -0.2299070875 -1.7532172626
C 2.8449761185 -1.0965639549 -2.9387020675
C 1.5505760668 -1.0535686908 -3.7379017240
C 2.6376044669 1.1970196419 -2.0500568777
C 3.7206020452 1.8537212977 -2.9128306624
I 3.1265527250 1.5876697485 2.3526717146
H -6.5008658423 5.2820952853 2.0820244200
H -7.9395986949 4.6545918141 1.2634084257
H -7.9001202256 4.7552150859 3.0310412988
H -7.5304893762 2.3900145978 2.2949513540
H -6.0990198988 3.0145881543 3.1054534416
H -5.0480527649 3.5070025380 0.8883577100
H -6.4845637053 2.8890746693 0.0696406607
H -4.6842886836 1.2674504745 1.9510583952
H -6.1156110477 0.6403557892 1.1051416145
H -0.7822758275 0.6261531462 -2.2080303454
H -1.2001945739 0.0085517442 -4.5655028678
H -3.4923391721 -0.3192151193 -5.4143220432
H -5.4641676839 -0.0116874678 -3.9021384722
H 0.1796678325 2.2932393386 1.7018088631
H -1.5443737558 -1.1742685517 -0.1387329894
H 4.6648983173 -1.9354241739 0.5512612142
H 3.3525291886 -2.5259397471 -0.4933893745
H 4.8956559004 -0.7150098662 -1.4720162563
H 4.1989286200 0.4042758465 -0.2966497051
H 3.7018689060 -0.8578786463 -3.5973457976
H 3.0052408235 -2.1234901155 -2.5893748352
H 1.3930318804 -0.0817686996 -4.2155413743
H 1.5790527279 -1.8101343737 -4.5279314755
H 0.6929469759 -1.2646956553 -3.0904100773
H 2.5723554302 1.7185165484 -1.0866999970
H 1.6611064306 1.3233009036 -2.5318369046
H 3.5173746192 2.9250631334 -3.0094622139
H 3.7493657150 1.4275395172 -3.9204067580
H 4.7125306284 1.7386076811 -2.4631805182
