51
CONF147
C 1.0661588736 -2.6419117567 1.5189240936
N -0.3944661290 -2.5452002280 1.5839167074
C -0.9693543391 -3.8782297431 1.3341907961
C -2.4816223465 -3.8805403866 1.5058978651
C -3.1138252750 -2.8610035720 0.5650753593
C -2.4619501620 -1.4956614508 0.7653702143
C -0.9364420004 -1.5625127071 0.6223647932
C -0.3103677851 -0.1788136454 0.8305091936
C -0.8955042667 0.8775196078 -0.1289286088
N 0.0061025593 1.9915460394 -0.4499490757
C 0.1112299842 3.0513246091 0.4728905853
C -0.4490705847 2.9687750297 1.7566489409
C -0.3670628869 4.0342168583 2.6500237599
C 0.3026611499 5.2012011323 2.3047830838
C 0.8724286092 5.3001409236 1.0382650509
C 0.7534943357 4.2555871019 0.1267182538
S 1.3000279310 4.5155423701 -1.5416602678
C 1.7389559689 2.8459202492 -1.9501962146
C 0.9985956582 1.7732580376 -1.4227922585
C 1.2627462558 0.4858484869 -1.9203597384
C 2.2200183643 0.2816306761 -2.9170058214
C 2.9754446573 1.3538567878 -3.3990268343
C 2.7344368348 2.6251171908 -2.8969816900
S 2.5697104181 -1.3147070857 -3.6196260548
C 1.2575725579 -2.3845793157 -2.9422225386
H 1.3965575048 -3.4611180894 2.1650107181
H 1.5423084759 -1.7267395184 1.8784899746
H 1.4341699898 -2.8475007774 0.4946637369
H -0.5081112570 -4.5811442286 2.0373590874
H -0.7153803208 -4.2262438736 0.3100257384
H -2.8666605980 -4.8879811365 1.3105943233
H -2.7260305322 -3.6292379990 2.5461196366
H -4.1955586114 -2.7945128072 0.7271896306
H -2.9614134721 -3.1838705692 -0.4742485684
H -2.8659855745 -0.7842740877 0.0379041106
H -2.6966437945 -1.1095215707 1.7672133556
H -0.7032361970 -1.8946161061 -0.4156506285
H 0.7697278132 -0.2207092800 0.6689120351
H -0.4599249347 0.1105448092 1.8763673831
H -1.1675132421 0.4082738513 -1.0807108075
H -1.8156670613 1.3113934281 0.2716024229
H -0.9647106804 2.0735930937 2.0741106436
H -0.8253362466 3.9334373780 3.6286081907
H 0.3807140497 6.0273765721 3.0031335957
H 1.3887792777 6.2065734732 0.7366429627
H 0.7189787628 -0.3622170053 -1.5327226478
H 3.7305286017 1.2039693032 -4.1638293580
H 3.2993417648 3.4705247681 -3.2781943606
H 1.3968482993 -3.3570742887 -3.4201207693
H 1.3567366172 -2.5015561474 -1.8604361036
H 0.2675617765 -1.9956944011 -3.1948634942
