48
CONF49
C -4.5598639396 -1.5030646785 0.4609395557
C -4.3737264632 -0.0069936257 0.1715690647
C -5.5850457406 0.7523233805 0.7391711320
C -4.3175244485 0.2277097905 -1.3445885472
C -3.1149056283 0.5985444758 0.8575810115
C -1.7597839147 0.2098597155 0.2369631473
N -1.4395913199 -1.2085835697 0.3590001920
C -1.1201173809 -2.0971922292 -0.6069600152
N -0.9196037346 -3.2950894780 -0.0770113518
C -1.1294532989 -3.0790215368 1.2525984239
N -1.4428095490 -1.8303759376 1.5675939001
O -0.7792837465 0.9839271806 0.9178191208
C 0.5311682551 0.9218436793 0.4907141621
C 1.4885997940 1.2074760650 1.4641568255
C 2.8336690931 1.2202643875 1.1292535847
C 3.2592780155 0.9349331579 -0.1768069513
C 2.2798668876 0.6490967856 -1.1352427376
C 0.9250319720 0.6427845761 -0.8170914791
C 4.6942178685 0.9351773989 -0.5274356495
C 5.5749019388 1.8630895634 0.0478180732
C 6.9265719496 1.8612917518 -0.2810648031
C 7.4272397838 0.9342158606 -1.1931332934
C 6.5626697139 0.0076180885 -1.7726971365
C 5.2112316761 0.0066828483 -1.4428189521
O -3.1182159266 0.4101362094 2.2686636658
H -3.7973339469 -2.1219366003 -0.0201932310
H -4.5506970670 -1.7065287876 1.5364957963
H -5.5318551364 -1.8226793151 0.0708313012
H -6.5049386940 0.3784868245 0.2784427796
H -5.6622162655 0.6165966887 1.8213469153
H -5.5075337244 1.8249408734 0.5281903768
H -4.0974517465 1.2764597394 -1.5770626328
H -5.2885160493 -0.0181900553 -1.7864548869
H -3.5676334231 -0.4021629557 -1.8346179228
H -3.1682837346 1.6846408514 0.7021823761
H -1.7745901487 0.4335569857 -0.8337790848
H -1.0592475139 -1.8289993263 -1.6539180989
H -1.0464428084 -3.8526780376 2.0053560266
H 1.1639284552 1.4090218430 2.4798358785
H 3.5670874147 1.4234619689 1.9033235034
H 2.5725848331 0.4521065065 -2.1618721261
H 0.2037280099 0.4446395734 -1.6013003753
H 5.1938260025 2.6065630423 0.7413456536
H 7.5896521107 2.5932050320 0.1702350540
H 8.4819378822 0.9336703146 -1.4496643661
H 6.9436254873 -0.7250264695 -2.4777120006
H 4.5530732963 -0.7368273412 -1.8821034733
H -2.7672238941 -0.4768783235 2.4521022985
