65
CONF368
C -4.8114748796 2.7893842638 -0.2931455506
C -3.4847055054 3.3963596189 0.1572956048
C -2.2683722420 2.6256612941 -0.3638079281
C -0.9488880913 3.3058022295 0.0349926900
C -2.2481912868 1.2161894012 0.1889185156
O -2.4657140850 0.9271019491 1.3512641771
O -1.9054842827 0.3206815888 -0.7558537541
C -1.7811681063 -1.0812936382 -0.3531247153
C -3.1247961267 -1.7706969986 -0.5143504617
C -3.0307559076 -3.2397942077 -0.0754690497
C -1.7820646384 -3.8779699804 -0.6082659559
C -0.7405487716 -3.2063668440 -1.1354286229
C -0.7269079455 -1.6946375441 -1.2582711817
C 0.6972309177 -1.1482094858 -1.0103875291
C 1.6141837103 -1.7341446844 -2.1064154298
C 1.5140476697 -3.2365216844 -2.1073380832
C 0.4385180646 -3.8928916101 -1.6395742677
C 3.0676370700 -1.2598889462 -2.0259760698
C 1.1804501451 -1.4479614626 0.4290973920
C 1.2456967534 -0.2214112667 1.3467449082
C 2.3080201863 0.7883768814 0.9615518994
C 2.3469289460 2.0112855527 1.8605583535
C 3.5481350235 2.9164428187 1.5434901164
C 4.4563217585 2.2754117045 0.4781568704
C 4.7052994634 0.8264173520 0.7837360658
O 5.7941635182 0.2866310646 0.8141929850
O 3.6039650470 0.0995557916 1.0607041389
O 4.2693649783 3.1014419458 2.7718011573
C -3.1165205640 -3.4002504106 1.4532356507
H -4.8760158714 2.7601297520 -1.3862548986
H -4.9262386710 1.7647163360 0.0783121019
H -5.6577675871 3.3740991308 0.0794793202
H -3.4051570029 4.4286680310 -0.2034456221
H -3.4355344546 3.4357371893 1.2518521494
H -2.3188088614 2.5597131326 -1.4562075449
H -0.9154427356 4.3169682624 -0.3809517537
H -0.8725329818 3.3762760406 1.1247804405
H -0.0838024396 2.7491976540 -0.3402807476
H -1.4619452662 -1.1065827135 0.6925516430
H -3.8860903309 -1.2469702648 0.0737110205
H -3.4149962784 -1.7150526955 -1.5707105385
H -3.8911261014 -3.7744567214 -0.5021087671
H -1.7240613460 -4.9648030812 -0.5462248091
H -0.9990036827 -1.4421300864 -2.2954507937
H 0.6604916487 -0.0616997191 -1.1603220378
H 1.2175387463 -1.3705703228 -3.0688109549
H 2.3598651744 -3.7986548076 -2.4997642108
H 0.4199943461 -4.9812326790 -1.6354627451
H 3.1193536904 -0.1655601200 -2.0226654393
H 3.5681436803 -1.6252848442 -1.1246741059
H 3.6295902368 -1.6245596842 -2.8920872125
H 0.5111609166 -2.1827960644 0.8926550174
H 2.1644476131 -1.9247524625 0.4103446959
H 0.2844331144 0.3083380635 1.3451227310
H 1.4299769234 -0.5383860007 2.3808334409
H 2.1778396631 1.0874992641 -0.0865151361
H 2.4273695669 1.6777347960 2.9011554652
H 1.4058185487 2.5571605653 1.7575795774
H 3.2113487019 3.8895355304 1.1645470667
H 5.4115454936 2.7993213440 0.4081169277
H 3.9611610392 2.3428218283 -0.4996828810
H 4.9680426904 3.7491053966 2.6096618509
H -3.0333728162 -4.4544143003 1.7363654520
H -4.0730329649 -3.0185579539 1.8252897804
H -2.3075641259 -2.8552635041 1.9509293913
