49
CONF34
C -5.5317023619 -0.7284995288 -2.3325698421
C -4.2025235976 -1.2738309308 -1.8026030714
C -3.2508624194 -1.5800983461 -2.9631989473
C -3.5636611338 -0.2751350388 -0.8359859918
C -4.3294220146 0.0284458219 0.4863486563
C -4.2385254050 -1.3424069472 1.2197279779
C -2.8267813435 -1.8618015000 0.8250051139
C -2.2701139751 -0.7310066235 -0.0945329680
C -2.0535316778 0.4650309319 0.7963130703
C -3.3295712374 0.9347608473 1.1577078690
C -3.4934443277 2.0438090333 1.9701739642
C -2.3477420419 2.7170410397 2.4103425872
C -1.0804438680 2.2688727488 2.0553164044
C -0.9212017775 1.1293689717 1.2503921478
N 0.3955042259 0.7627805831 0.8627915106
C 0.9391769133 -0.4796628155 0.9912791566
O 0.3119011678 -1.4538865294 1.4110180956
C 2.3545227188 -0.6178582646 0.5798636792
C 2.9039660766 -1.8441202880 0.2313447037
N 4.2046595747 -1.6354882002 -0.0516911986
N 4.5640860546 -0.3521402203 0.0999746398
C 3.4490768538 0.2797106655 0.4777080059
C 3.5706661637 1.7274027047 0.7817751543
F 2.7576977101 2.4834303046 -0.0576403062
F 3.1255267059 1.9984405590 2.0597976204
C 5.1823764490 -2.6177417182 -0.5019997949
H -5.9828769344 -1.4299935319 -3.0421592705
H -5.3734361474 0.2235327464 -2.8538836332
H -6.2501112620 -0.5577774002 -1.5248939909
H -4.4068851273 -2.2137861683 -1.2755423813
H -2.9911654279 -0.6588245386 -3.4989539099
H -2.3225049838 -2.0425210712 -2.6141496866
H -3.7203078826 -2.2645079632 -3.6776012698
H -3.3739807940 0.6598692188 -1.3821864182
H -5.3382491665 0.4357291272 0.4021533838
H -5.0286899390 -2.0148027548 0.8716720409
H -4.3565269645 -1.2209030764 2.2998464421
H -2.8853897063 -2.8037382622 0.2709974824
H -4.4830885983 2.4015744482 2.2390947787
H -2.4431814724 3.6029899357 3.0305205945
H 2.4480491702 -2.8209713592 0.1661140353
H 4.5959513211 2.0924150954 0.6784124853
H 5.4833728788 -2.3986282301 -1.5296912684
H 4.7229352588 -3.6053575546 -0.4558050639
H 6.0568388135 -2.5856817556 0.1515624635
H -2.1724882826 -2.0162429129 1.6831779440
H -1.4174769320 -1.0223417611 -0.7070629629
H 0.9950050983 1.5178188567 0.5615359944
H -0.1965741094 2.8005592260 2.3961144682
