47
CONF221
C -3.6270010258 -2.3719805703 -1.5131771030
C -3.5587402552 -2.3861637619 0.0135590616
C -3.9046419778 -1.0381563350 0.6539115084
C -2.9525027062 0.0864747616 0.2402621055
C -3.0551456619 1.3524458404 1.1012766305
C -4.4625785653 1.9678531303 1.0441940551
C -4.6504281131 3.2296453147 1.8886228998
C -2.0189956083 2.3873757668 0.6678324031
O -0.6788848962 1.8506498403 0.7690227526
C -0.0632268971 1.4827363693 -0.3908558364
O -0.5526601391 1.6122839405 -1.4948944694
C 1.2570245402 0.9156713921 -0.0934396463
C 2.0384627943 0.4680881331 -1.0930341340
C 3.3582396998 -0.1234842267 -0.9935879254
C 4.0125207039 -0.5344431457 -2.1698748324
C 5.2701530672 -1.1037210383 -2.1386822653
C 5.9231289145 -1.2826281120 -0.9144074133
C 5.2953509374 -0.8833947976 0.2720419073
C 4.0323632760 -0.3137227545 0.2211551402
O 7.1561959007 -1.8486291481 -0.9799580399
C 7.8637585738 -2.0475925231 0.2425413358
H -2.8792848733 -1.6986907418 -1.9428987247
H -3.4483091802 -3.3699876215 -1.9249682286
H -4.6129111546 -2.0392133454 -1.8574735843
H -4.2455624830 -3.1492675767 0.4004334683
H -2.5514596005 -2.6869823843 0.3312545425
H -3.8803814127 -1.1452103866 1.7475382941
H -4.9378418330 -0.7777047248 0.3899910202
H -3.1148474475 0.3621404007 -0.8093093176
H -1.9251973770 -0.2957649416 0.2991027235
H -2.8410923455 1.0799284733 2.1466516797
H -4.7140163219 2.1794592930 -0.0046184764
H -5.1780180476 1.2113505400 1.3828924709
H -4.1079988751 4.0876832210 1.4810372765
H -4.3028605535 3.0700950849 2.9156837175
H -5.7072275761 3.5088401401 1.9354444590
H -2.2022383872 2.7143590184 -0.3615029373
H -2.0235555181 3.2530814323 1.3347405677
H 1.5484324837 0.8775653598 0.9504257134
H 1.6304280172 0.5599049469 -2.0989542937
H 3.5129133343 -0.3988917178 -3.1247261538
H 5.7707692849 -1.4187348726 -3.0475299885
H 5.7799479145 -1.0111392783 1.2318620380
H 3.5643120895 -0.0106350830 1.1517332861
H 8.0520325804 -1.0943005697 0.7522539501
H 8.8141015397 -2.5035981869 -0.0365847375
H 7.3174714820 -2.7235946609 0.9123913810
