28
CONF36
O -2.9830033145 2.3723446813 0.8738318951
C -2.4923490838 1.0604710046 1.1579856644
C -2.0840463530 0.2959937942 -0.0814814379
O -0.9705594068 0.9574157482 -0.7367673900
C -0.0724795877 0.0044854293 -1.2660713478
C -0.6811388356 -1.3730496214 -1.0133367741
C -1.5895982611 -1.1221321515 0.1937032394
O -2.7080491910 -1.9944824490 0.2866764142
N 1.2619650468 0.1655727292 -0.5937925231
C 1.4224282665 0.8510836365 0.5752317091
C 2.6228757303 0.9859194503 1.1879564465
C 3.7992197674 0.3997826404 0.6063368870
O 4.9433502822 0.4503217582 1.0591446121
N 3.5489311144 -0.2785752952 -0.5953642879
C 2.3378129332 -0.4380880400 -1.2348857967
O 2.2141756429 -1.0632236605 -2.2824037961
H -3.8163201635 2.2790997798 0.3946303599
H -1.6278280848 1.1894754159 1.8171657236
H -3.2434062091 0.4588337516 1.6913712296
H -2.9277410938 0.2481197176 -0.7880209692
H 0.1059587148 0.2078284455 -2.3250660931
H 0.0729456872 -2.1443395945 -0.8501111530
H -1.3026580701 -1.6532300040 -1.8701875236
H -1.0081085323 -1.1394180613 1.1284022127
H -2.3974784879 -2.8415757839 0.6298072938
H 0.5197692803 1.2964006513 0.9745697530
H 2.7135894566 1.5398253462 2.1122106058
H 4.3417433504 -0.7148587314 -1.0515349642
