47
CONF39
C -4.9650879144 0.9165260523 -0.2458686589
Si -3.5524201324 0.2812976823 0.8091002061
C -4.1494938550 -1.0519220802 1.9770164259
C -2.7798862868 1.6986571481 1.7656510117
O -2.4243381583 -0.4124561181 -0.1857130963
Si -1.0683039734 0.0163773274 -1.0084189788
C -0.4353369663 -1.5176059094 -1.8593430713
C -1.4469716332 1.3948617957 -2.2057291016
O 0.0545424567 0.5941416765 0.0512291360
Si 1.0710437968 -0.0263255100 1.1910738531
C 1.7672450187 1.4189312763 2.1419023126
C 0.1629166780 -1.2314990821 2.2873839461
O 2.2782593661 -0.8599049048 0.4519058433
Si 3.5047267174 -0.5986673689 -0.6293820146
C 3.0401993416 0.7896643852 -1.8030596060
C 3.7682992373 -2.1974256897 -1.5638976999
C 5.0482775106 -0.1350326454 0.3271938025
H -4.6227637480 1.6940368695 -0.9377497102
H -5.4019805400 0.1079307960 -0.8416481398
H -5.7615587421 1.3469075706 0.3712605301
H -3.3220632812 -1.4415272291 2.5797109764
H -4.9160875304 -0.6721925475 2.6611321000
H -4.5803404035 -1.8909720991 1.4204841659
H -3.5224051449 2.1863928817 2.4073399324
H -2.3661586649 2.4591239947 1.0944933255
H -1.9630663278 1.3474611909 2.4046544904
H 0.4403616057 -1.2994628475 -2.4789808059
H -1.2071085418 -1.9508554245 -2.5040241584
H -0.1434977214 -2.2773164870 -1.1263538430
H -0.5579815708 1.6728692725 -2.7816482381
H -1.7874197788 2.2896297065 -1.6732563383
H -2.2317876914 1.1015576511 -2.9107061494
H 0.9744604573 1.9649736629 2.6640507319
H 2.2646746588 2.1254461461 1.4685444371
H 2.4995370766 1.0876267895 2.8855282733
H -0.6133092733 -0.7304128484 2.8746725933
H -0.3223607299 -2.0110124286 1.6902712278
H 0.8523503748 -1.7197193547 2.9838820307
H 2.8338843267 1.7185602735 -1.2602640992
H 3.8523651693 0.9897899764 -2.5110991126
H 2.1442907310 0.5423974826 -2.3817826263
H 4.0227896201 -3.0105128305 -0.8756944141
H 2.8627187387 -2.4910393236 -2.1053069926
H 4.5819527425 -2.1056664022 -2.2915843643
H 5.3111581647 -0.9182944042 1.0462790594
H 5.9047685594 0.0089351370 -0.3406674227
H 4.9009064569 0.7957261655 0.8860288098
