66
CONF12
C -2.5948897067 5.1699416119 -0.0793075369
C -3.5680288160 4.2519475601 0.6349617499
O -3.0010186560 2.9299137125 0.7926513113
C -3.0886331795 2.1081777163 -0.2923461202
O -3.7060678646 2.4160970656 -1.2982932248
C -2.3629091367 0.8584625592 -0.0601075379
C -2.4911990055 -0.1664519382 -0.9472271127
N -1.8690778334 -1.3672222020 -0.6850537617
C -1.1694444667 -1.6527913337 0.4653089915
C -1.0260499935 -0.6883716535 1.4150997658
C -1.4602277251 0.7499373300 1.1652816327
C -0.2458043373 1.6879095097 1.0938765673
C -0.1654775072 2.7486077699 1.9960608992
C 0.9377241169 3.5907591270 2.0385827000
C 2.0068662687 3.3758864054 1.1719537060
C 1.9544705294 2.3212728400 0.2747598310
C 0.8397415286 1.4695743374 0.2173100361
C 0.8198234345 0.3775087508 -0.7499842004
C 1.8587647887 -0.3998363515 -1.0917737540
C 1.6605302851 -1.5015584104 -2.0490557486
O 0.5986974823 -1.7973039335 -2.5731956539
O 2.8267512261 -2.1567024226 -2.2412421890
C 2.8992117939 -3.3442728165 -3.1175528901
C 2.5474427020 -2.9599964886 -4.5508429107
C 4.3668860915 -3.7431645180 -3.0110622986
C 2.0020259775 -4.4520919983 -2.5730038844
C -0.3819252973 -1.0164303226 2.6866703090
O 0.1458356257 -2.0735000959 2.9907539827
O -0.4365855389 0.0386624649 3.5477820892
C 0.2218889833 -0.1629619874 4.8183027730
C 0.1451569133 1.1475342877 5.5686039248
C -0.6332343151 -3.0496744805 0.5296543810
C -3.2688759374 -0.1448300075 -2.2283157623
H -2.4246117246 4.8256238993 -1.1021082410
H -1.6370826602 5.1990033385 0.4484770544
H -3.0040258867 6.1845941196 -0.1198242295
H -4.5163443080 4.1756194370 0.0951008405
H -3.7573054792 4.5878143126 1.6582003916
H -1.7889120797 -2.0230286345 -1.4461248046
H -2.0347576820 1.0877852000 2.0326651842
H -0.9891295306 2.9009042720 2.6862788260
H 0.9658694637 4.4113638274 2.7490457276
H 2.8716129499 4.0312099495 1.1914957967
H 2.7689594015 2.1609103168 -0.4248663238
H -0.1220421320 0.1704810363 -1.2450030262
H 2.8397262643 -0.2982108465 -0.6390437190
H 2.7548462931 -3.8100755168 -5.2084497219
H 1.4952328657 -2.6900919378 -4.6447855430
H 3.1636447721 -2.1171939263 -4.8783451536
H 4.5566222903 -4.6249383453 -3.6293014068
H 4.6261907978 -3.9793396113 -1.9754157820
H 5.0112367318 -2.9296457648 -3.3553819135
H 0.9470930910 -4.1983317444 -2.6795487998
H 2.1997679302 -5.3756117741 -3.1260977003
H 2.2234598515 -4.6331517256 -1.5166029073
H 1.2566058351 -0.4715680890 4.6352957531
H -0.2785077911 -0.9770404442 5.3546444328
H 0.6470766982 1.9410110376 5.0076769088
H -0.8949972866 1.4424643880 5.7345156680
H 0.6343278132 1.0458174965 6.5419077571
H -0.8613143332 -3.5921058976 -0.3923311588
H -1.0499929515 -3.5912043950 1.3817971076
H 0.4487954620 -3.0340382243 0.6782942395
H -3.2270319990 -1.1215567555 -2.7185151537
H -4.3119782598 0.1217421774 -2.0467509511
H -2.8754041449 0.6157586205 -2.9061482212
