52
CONF36
O 4.0203744569 -1.3759738416 -2.5352144861
C 2.7462918013 -1.3678805516 -1.8735638198
C 2.7679862615 -0.5627129317 -0.5732505117
C 3.9123947517 -0.6862926346 0.2439634433
C 3.9605155911 0.0464569453 1.4024991383
C 2.9228045824 0.8918059724 1.7728351413
C 1.7932486856 1.0230643743 1.0060845962
C 1.7091833667 0.2773007868 -0.1900095392
C 0.4351033974 0.4581036022 -1.0254431981
C -0.8151089357 0.4610979177 -0.1653634558
C -1.6298719463 1.5891736226 -0.1334816994
C -2.7785266632 1.5941382662 0.6657953154
O -3.6438391617 2.6403360096 0.7653554880
C -3.3485824049 3.8139262868 -0.0042527033
C -3.1006987162 0.4719858353 1.4401362371
O -4.2021563957 0.4916390932 2.2631443843
C -5.3981886041 0.0173404282 1.6100827333
C -2.2716035821 -0.6603290559 1.3989922166
O -2.6690581414 -1.7006809452 2.1815420611
C -1.8517403374 -2.8787568256 2.1719151938
C -1.1261596775 -0.6621630851 0.6020874539
C 0.4035541536 -0.6183578115 -2.1029997531
C -0.5557449798 -0.4608218854 -3.2615885759
O 0.0045023199 -1.0166070258 -4.3695834097
C 1.3465997051 -1.5255208810 -4.0595120489
C 1.7418213067 -0.7505794627 -2.8120498419
O -1.6552893618 0.0387235956 -3.2957388247
O 3.2178546166 1.5073425777 2.9612520826
C 4.5291739534 1.0350626179 3.3429819812
O 4.9582824838 0.0854194225 2.3419979766
H 4.5397780222 -2.1141129524 -2.1959925158
H 2.4454910904 -2.4049359134 -1.6553660498
H 4.7370317149 -1.3310470367 -0.0382274905
H 0.9804123208 1.6742971442 1.3094905890
H 0.4982054930 1.4333862161 -1.5278409821
H -1.3693592385 2.4492233326 -0.7381378157
H -4.1496336370 4.5192440317 0.2184361660
H -2.3847755917 4.2446855196 0.2907431636
H -3.3418374282 3.5894029784 -1.0771576506
H -5.2709213587 -1.0211442671 1.2826900293
H -6.1993611146 0.0754936485 2.3494192775
H -5.6419890546 0.6503409411 0.7489147567
H -0.8412460718 -2.6591341786 2.5356524966
H -2.3407880273 -3.5803593387 2.8482002687
H -1.7977643601 -3.3116690128 1.1662153474
H -0.4654512567 -1.5208985256 0.5864980212
H 0.1550993889 -1.5900808257 -1.6439425735
H 1.9698917422 -1.3383237920 -4.9337231317
H 1.2679266712 -2.6024136477 -3.8698834203
H 2.0964013102 0.2495918100 -3.1000739780
H 5.2261371236 1.8802092481 3.3622170283
H 4.4636308258 0.5320052305 4.3132545920
