21
CONF8
F 0.0713901172 -1.5514867974 -1.1153880239
C 0.1392888233 -0.8224109726 0.0299039725
F 0.4903286016 -1.6568625900 1.0427612846
C 1.2598535762 0.2491158252 -0.1381263277
F 1.0991757320 1.1561320065 0.8798307677
F 1.0120917256 0.9156238160 -1.3095213130
C 2.6482878728 -0.3520715240 -0.1392293106
C 3.7287060420 0.5940289062 -0.6639127139
O 3.8686697174 1.7902036838 0.1030473017
C -1.2850228864 -0.2631854995 0.3551120343
F -1.5342917735 0.8406200890 -0.3878376034
F -1.3336935510 0.0721492931 1.6648663981
C -2.4488094694 -1.2723398065 0.0871391482
F -2.6383741185 -1.4491645196 -1.2257131126
F -3.5798463046 -0.7823398463 0.6162397762
F -2.1860172149 -2.4577963555 0.6560061146
H 2.8784259600 -0.6765418031 0.8803427825
H 2.6344156596 -1.2450432623 -0.7751287586
H 3.4916092221 0.9122642031 -1.6822424995
H 4.6716061579 0.0318363452 -0.6966444782
H 4.1424267595 1.5420991770 0.9954733454
