44
CONF24
C 0.3454675956 3.9311225533 0.2097611319
C 0.3590222009 2.5824140212 -0.5043865316
C 0.3315473452 1.4179623011 0.5061688360
C 0.3568239953 0.0847905785 -0.2006684196
C -0.7649840820 -0.7520979360 -0.3746256845
C -0.7618680531 -1.7623142812 -1.3763554293
C 0.4079420057 -2.0524848084 -2.0637016168
C 1.5793022698 -1.3565553899 -1.7999213692
C 1.5147733080 -0.2889323416 -0.8863318539
O 2.6126962821 0.4915267530 -0.6421594701
C 3.7731036930 0.2249480437 -1.2747146407
C 3.9414906026 -0.7842930572 -2.1548097199
C 2.8379911156 -1.6674824215 -2.4924883041
O 2.9510022784 -2.5946317831 -3.2987053332
C 4.8257277704 1.2038405587 -0.8635685133
O 4.6226301817 2.1141175254 -0.0923989780
O 5.9976679951 0.9423038154 -1.4564833449
C -2.0052940301 -2.4721182636 -1.7313900258
O -2.0337974927 -3.3944535281 -2.5579093279
C -3.1866900244 -1.9747095223 -1.0730035505
C -3.0950344598 -1.1059827453 -0.0310140696
N -1.9060614508 -0.5722979230 0.4141004989
C -1.7158271570 -0.4359131550 1.9012411640
C -2.1710781301 -1.6853035214 2.6434524234
C -4.3841746449 -0.6687842696 0.6052404955
O -5.3804937537 -1.3565943140 0.6269660899
O -4.3215261835 0.5857371286 1.0802193174
H 0.3487641732 4.7546360443 -0.5105664896
H -0.5458891685 4.0347246888 0.8381106878
H 1.2259857854 4.0399988874 0.8522475921
H -0.5142566615 2.4936382476 -1.1618917863
H 1.2469067267 2.5080546368 -1.1401118686
H 1.1849014320 1.5052124471 1.1883499727
H -0.5725878027 1.5305254198 1.1019595017
H 0.4029495442 -2.8333358969 -2.8158882534
H 4.9039075696 -0.9379846425 -2.6251632538
H 6.6445269659 1.6050390075 -1.1591389036
H -4.1606739085 -2.3237113717 -1.3930440472
H -0.6473426671 -0.3067688849 2.0635476648
H -2.2308272855 0.4564914254 2.2610655800
H -1.6755918506 -2.5756548513 2.2445871627
H -1.8976851703 -1.5786454021 3.6972475061
H -3.2530805101 -1.8367959899 2.5971463060
H -5.1903666456 0.8107611165 1.4575069502
