41
CONF6
C -0.0748315572 0.1999831071 -2.5878007084
C 0.0800886558 -0.9834316397 -1.6732590150
C 0.2529535230 -2.2611361973 -2.2175421125
C 0.3993124009 -3.3726216305 -1.4022331917
C 0.3741602067 -3.2289846096 -0.0182664089
C 0.2082823284 -1.9756941257 0.5660029269
C 0.0676128627 -0.8579109286 -0.2766325280
N -0.0992114059 0.4347515987 0.3229350877
C -1.3983962928 0.8587582479 0.8724174543
C -2.5468892484 -0.0339472604 0.4063018867
C -1.7064768172 2.2830967050 0.4058846598
O -1.5807779990 2.6822443450 -0.7283335107
O -2.2646519255 2.9910814563 1.4042666151
C -2.6286580140 4.3419291377 1.0506037150
C 0.9474180115 1.2900431976 0.5530558176
O 0.7839662181 2.3628411849 1.1227509188
C 2.3187857101 0.8442152266 0.0582767225
O 2.7511399604 -0.2602988503 0.8414503842
C 3.6188661961 -1.1311331215 0.1289383637
C 0.1934458239 -1.8197129126 2.0586372547
H -0.7060399143 -0.0636299761 -3.4416490305
H -0.5102610843 1.0629554796 -2.0811372156
H 0.8969978853 0.5051168984 -2.9962690096
H 0.2630552675 -2.3738081599 -3.2980713888
H 0.5295791860 -4.3561373938 -1.8427927468
H 0.4884619248 -4.0999180667 0.6204528968
H -1.3436353582 0.8742987574 1.9680622455
H -3.4788724297 0.3388699827 0.8398680231
H -2.6333289266 -0.0104841987 -0.6834011654
H -2.4076711788 -1.0699943548 0.7227028679
H -3.0572495426 4.7741044690 1.9544556423
H -3.3577872895 4.3411477082 0.2359967810
H -1.7389916036 4.8956432204 0.7401903208
H 2.2564966409 0.5679308442 -1.0049006598
H 3.0008094509 1.6970845898 0.1676471853
H 3.1069220219 -1.5687073313 -0.7420634631
H 3.9001697973 -1.9316662181 0.8171313873
H 4.5282766010 -0.6096621035 -0.2061212931
H 0.9032322673 -1.0494463651 2.3722031890
H 0.4612185637 -2.7604255330 2.5448819265
H -0.7975207209 -1.5273446505 2.4253592654
