64
CONF5
C 3.8029107942 0.9842936247 3.5110365444
C 3.1160754432 1.9671042536 2.5891273483
O 2.5576741595 2.9762800955 3.0424752478
N 3.1496898577 1.7055297199 1.2518332914
C 3.5753020251 0.4157341290 0.6937039103
C 4.2011241684 0.6136186946 -0.6895569476
N 3.3267349771 1.3466256550 -1.6087517004
C 3.0503245861 2.6665974113 -1.0162866431
C 2.3610050835 2.5419608655 0.3403089093
C 2.2330315059 0.6565296677 -2.1760155724
C 1.2997264067 1.3412251176 -2.9788841692
C 0.2154014340 0.6876501146 -3.5453751462
C 0.0213085985 -0.6796388358 -3.3468696478
O -1.0958705299 -1.2295180088 -3.9407609407
C -1.7108671417 -2.3779926967 -3.3429922397
C -2.5833986299 -2.0376372118 -2.1460234040
C -3.4994829061 -0.8154592985 -2.3330842414
O -2.8283220654 0.2282660771 -1.6072431139
C -2.2162235318 -0.4220927896 -0.5125642986
C -0.9928905134 0.4096007194 -0.0996921955
N -0.3782408238 -0.0914565873 1.1181867260
C -0.4662007114 0.4855702170 2.3669570750
C 0.2083441588 -0.3569666744 3.2128347447
N 0.7004059665 -1.4418849065 2.5160955349
C 0.3262072801 -1.2502436273 1.2620448219
O -1.7546707564 -1.6662779985 -1.0206089738
C -3.1932410822 -0.6550614267 0.6475694781
C -3.2910605594 -1.9294965569 1.2114668709
C -4.1293388796 -2.2071319609 2.2836807410
C -4.8922277011 -1.1740077524 2.8081057837
Cl -5.9652262074 -1.4883104741 4.1606794358
C -4.8286890613 0.1126388888 2.2918071395
C -3.9738188490 0.3544621852 1.2213661432
Cl -3.9226560318 2.0156178189 0.6422671169
C 0.9691672490 -1.3899680358 -2.6177833807
C 2.0483109415 -0.7292465593 -2.0335774109
H 4.8632567825 0.8710032843 3.2653996359
H 3.3357604737 -0.0040492803 3.4473796375
H 3.7093931761 1.3572232411 4.5306386013
H 4.3122967781 -0.0503389999 1.3481301651
H 2.7061753086 -0.2535722592 0.6264215526
H 4.4820009489 -0.3536104595 -1.1127244350
H 5.1222642220 1.1993901072 -0.5831263762
H 4.0094260162 3.1850217858 -0.8988788706
H 2.4318358393 3.2733360881 -1.6779927360
H 1.3624301840 2.0979318785 0.2043838441
H 2.2360657600 3.5261000785 0.7943806096
H 1.4105082286 2.4027576976 -3.1666370936
H -0.5066369596 1.2437773614 -4.1354986881
H -0.9742221627 -3.1395947083 -3.0665155289
H -2.3522035781 -2.7982892425 -4.1239623596
H -3.1655489054 -2.9324572832 -1.8870454888
H -3.5878071702 -0.4964486117 -3.3724013419
H -4.4937020725 -0.9966257314 -1.9063830381
H -0.2757393593 0.3742241977 -0.9230934445
H -1.2951579044 1.4444042939 0.0675706962
H -0.9815299556 1.4219989131 2.5213880008
H 0.3707253954 -0.2397171225 4.2755172230
H 0.5338172392 -1.9000374540 0.4222678575
H -2.6856029141 -2.7246240932 0.7927223359
H -4.1844869025 -3.2064518028 2.6988160168
H -5.4250616471 0.9131304498 2.7119910677
H 0.8671614795 -2.4551866417 -2.4479914561
H 2.7342629759 -1.3262094301 -1.4461574272
