43
CONF31
C -2.7672540695 -2.7086555994 0.3119341453
C -2.8293634904 -2.2336885726 -1.1416651215
C -1.6227854256 -1.2973434512 -1.2543773168
N -1.4448498052 -0.7825740756 0.1286655093
C -2.4001083269 -1.4246876732 1.0455726756
C -0.9565128360 0.4660626598 0.3982533491
C 0.0681593257 1.0526958957 -0.3896137312
C 0.4998292049 2.3543074186 -0.1403261682
C 0.0144961930 3.0965867094 0.9251730553
C -0.9204736355 2.4942791321 1.7680487869
C -1.3969114458 1.2105439108 1.5112406424
C -1.4043922506 3.2823787894 2.9290587064
O -1.0583932386 4.4219845570 3.1744537905
O -2.2774123802 2.6012462657 3.7011337990
S 1.7262901556 3.1243418029 -1.2230794124
O 1.2461942659 3.0453709652 -2.6094267714
O 2.0430221306 4.4304753512 -0.6288958618
N 3.1444704496 2.2307193124 -1.1598817591
O 0.6539846268 0.3572462044 -1.4252328421
C 1.4939663255 -0.7061817081 -1.1081202294
C 1.9579556927 -1.4399917969 -2.1975644924
C 2.8263462875 -2.5025611351 -1.9758350704
C 3.2253986706 -2.8311323382 -0.6806251167
C 2.7532614997 -2.0829002363 0.3937670543
C 1.8849663982 -1.0110474738 0.1915904566
H -3.7087226209 -3.1311745679 0.6699634628
H -1.9759122383 -3.4560107393 0.4382570224
H -2.7796617570 -3.0478948807 -1.8683324897
H -3.7571567630 -1.6756743856 -1.3084923464
H -0.7336484009 -1.8499955897 -1.5797563781
H -1.7927648729 -0.4737433819 -1.9549247150
H -3.2982401616 -0.8013582180 1.1871017547
H -1.9390261138 -1.5945778896 2.0249748235
H 0.3622393494 4.1040337384 1.1102612380
H -2.1358808120 0.7849293526 2.1752331481
H -2.5450257206 3.1849807303 4.4304353673
H 3.5040011471 2.1685247757 -0.2091151595
H 3.0289021941 1.3042451167 -1.5654205294
H 1.6330622333 -1.1710214341 -3.1973740694
H 3.1906340688 -3.0764276737 -2.8219798625
H 3.9011400469 -3.6627392507 -0.5116473720
H 3.0605881865 -2.3276869765 1.4056242131
H 1.5255871033 -0.4258846194 1.0309435926
