63
CONF393
C 8.0121085728 -1.6322760106 -2.7502516830
C 6.7445435666 -1.0412534982 -3.3614192773
N 5.6959682574 -0.8341258674 -2.3564943282
C 5.8255704125 0.2836071432 -1.4208577892
C 4.4574399114 0.7893675652 -1.0350068310
N 3.6749994520 -0.3058767027 -0.4273906905
C 3.8136664926 -1.5785186192 -0.9279263782
O 3.2213927109 -2.5633388080 -0.5042869687
C 4.7689600047 -1.7857627789 -2.1372581814
O 4.6326116841 -2.8094456653 -2.8016058879
C 2.7046570656 0.0942064523 0.5516062330
O 2.5537616889 1.2836111138 0.8068304746
N 1.9965382301 -0.8932664149 1.1396423107
C 1.0366740935 -0.5652872657 2.1820754133
C 0.5716432941 -1.8226057655 2.8885475831
C 0.0447963801 -2.8949955025 2.1630812281
C -0.4042493659 -4.0334026831 2.8249794432
C -0.3424862637 -4.1049426354 4.2153642320
C 0.1728174136 -3.0344430467 4.9412801957
C 0.6297343700 -1.8970595300 4.2800332290
C -0.2068717127 0.1885906696 1.6723817227
O -0.8870465152 0.8508638144 2.4510570925
N -0.5240118827 0.0314615508 0.3664413320
C -1.7151619685 0.5965554837 -0.1867685813
C -1.9503272184 2.1404673458 -0.1840481304
N -3.2286954027 1.9000295385 0.5080043547
C -3.0413495254 0.5275152329 0.6075431663
O -3.7128684474 -0.3478117643 1.0992916499
C -4.3968370928 2.6545896967 0.0977495388
C -3.8499015932 3.7970135646 -0.8350267337
S -2.4026888695 3.0086538009 -1.7314862861
C -3.3657223947 4.9557561971 0.0389587599
C -4.8632981530 4.2892827548 -1.8606315175
C -5.3916605035 1.7615151558 -0.6379295580
O -6.6532305927 2.1552982839 -0.3919460548
O -5.0947017070 0.8457971042 -1.3699329801
H 8.7659210407 -1.7701985756 -3.5306314785
H 7.8013302863 -2.6044794710 -2.2951220909
H 8.4301811716 -0.9704173256 -1.9859288189
H 6.9523020071 -0.0701864599 -3.8233081359
H 6.3389066629 -1.7062227990 -4.1265207072
H 6.3698932165 1.0889117521 -1.9213340117
H 6.3954310899 -0.0135553734 -0.5296465726
H 4.5507133787 1.5843761634 -0.2956667405
H 3.9244325971 1.1847082165 -1.9081717043
H 2.1981438101 -1.8562252554 0.8864212462
H 1.4982638468 0.1096955243 2.9101367672
H -0.0224603958 -2.8450723856 1.0795159693
H -0.8086965416 -4.8629762307 2.2538334732
H -0.6962040867 -4.9923995814 4.7305065775
H 0.2240455531 -3.0842308051 6.0243479640
H 1.0354230888 -1.0635875772 4.8456219815
H -1.8866034911 0.1837785944 -1.1847202938
H -1.2259085522 2.7051480518 0.4087902159
H -4.9060750963 3.1251873696 0.9459362168
H -2.6469387249 4.6272428317 0.7946098490
H -4.2233273927 5.4041327405 0.5532496755
H -2.8940184407 5.7192321888 -0.5843704152
H -4.4204484611 5.0929953849 -2.4550151507
H -5.7400700291 4.6931837214 -1.3446232458
H -5.1859320916 3.4941084900 -2.5384792468
H 0.0775829213 -0.5199426957 -0.2277239527
H -7.2554982737 1.6015940264 -0.9190076804
