61
CONF17
C -1.3727148293 -0.3520082439 -4.0080359570
C -0.8392393402 -0.4665834175 -2.5837887082
C -1.7833511912 -0.0327531961 -1.4826869625
C -3.0079927526 0.5658712170 -1.7648393738
C -3.8799856762 0.9719006570 -0.7482966573
C -3.5020196083 0.7587089592 0.5727873400
C -2.2825655444 0.1564966951 0.9009239685
C -1.4161842283 -0.2347142069 -0.1322442360
C -0.1016450205 -0.8241900688 0.1760532029
C 1.1034432139 -0.1890179131 0.1104142355
N 2.1355319681 -0.9746667276 0.5347459687
C 3.5025198911 -0.8996596477 0.0131445230
C 3.7655268736 -1.8243250346 -1.1760306543
O 4.0896361025 -3.1592901804 -0.7926773744
C 2.9765385007 -3.9225727539 -0.3277754265
C 2.3732085021 -3.4066459973 0.9772118101
N 1.5656211712 -2.2148195144 0.8047148173
C 0.1872856854 -2.1822206229 0.5883720262
O -0.5594819856 -3.1581745567 0.7594262868
O 1.3626065825 1.0712915457 -0.3361733009
C 1.0487378841 2.1254144317 0.5281302679
O 0.7911235748 1.9333646573 1.6853539052
C 1.0548518256 3.4447176259 -0.2143259605
C 0.9873419163 4.5831623467 0.8060961428
C 2.3177131268 3.5738862921 -1.0810873930
C -0.2041928487 3.4577986142 -1.1077484545
C -1.9520022691 -0.0740997654 2.3540401389
C -2.7129619939 -1.2746433469 2.9344065173
C -5.2010131129 1.6060404689 -1.0895356997
H -2.2877072988 -0.9382162488 -4.1423625737
H -0.6265095465 -0.7266966727 -4.7145110023
H -1.5926532048 0.6862897595 -4.2766610870
H -0.5396822202 -1.5041871018 -2.3868729953
H 0.0865244445 0.1184912420 -2.5004352601
H -3.3028288990 0.7301402501 -2.7965779292
H -4.1659020445 1.0722533486 1.3759660638
H 3.6501286059 0.1420490312 -0.2846118291
H 4.2096241359 -1.1214354675 0.8194685823
H 4.6448159950 -1.4496604753 -1.7085125599
H 2.9046135642 -1.8124782952 -1.8644811283
H 2.1931261308 -3.9644545675 -1.1009552005
H 3.3626362545 -4.9325588706 -0.1598212061
H 1.6883204787 -4.1628019047 1.3737567619
H 3.1543449125 -3.2280098986 1.7246780571
H 0.9692337697 5.5383264725 0.2734097232
H 0.0861162956 4.5093359282 1.4199002965
H 1.8588019101 4.5704071712 1.4674579106
H 2.3119264654 4.5565490191 -1.5622642120
H 3.2228099831 3.4961910787 -0.4702920452
H 2.3506398432 2.8082466352 -1.8592409917
H -0.1714923692 2.6550780469 -1.8493650317
H -0.2515199002 4.4179126867 -1.6310468836
H -1.1126073675 3.3447607243 -0.5068026191
H -2.2099051545 0.8268076259 2.9237408297
H -2.4573423964 -2.1874078837 2.3882934317
H -2.4586956504 -1.4198987915 3.9893522728
H -5.8991541775 0.8583750494 -1.4840086405
H -5.6607118250 2.0626198797 -0.2094333480
H -5.0832371778 2.3748363080 -1.8597819188
H -0.8757347701 -0.2296098051 2.4683292097
H -3.7947619107 -1.1217828301 2.8620124978
