70
CONF135
C -2.9140092226 -0.6134815877 -1.0061583102
C -4.3376215601 -0.0145762705 -1.1251734412
C -5.3434955519 -0.9984716450 -0.6229849187
C -6.6731560084 -1.2336284335 -0.8760470915
N -7.0965257396 -2.3224378812 -0.1189556686
C -6.0409630059 -2.8086940049 0.6184234781
C -5.8940430739 -3.8719355519 1.5128888024
C -4.6246418798 -4.0599433823 2.0541381533
C -3.5230808660 -3.2330144055 1.7354887671
C -3.6711456361 -2.1677714069 0.8539306822
C -4.9402674396 -1.9839764674 0.3112815109
C -2.6242441900 -1.1584572580 0.4281261011
C -1.2081776664 -1.7215033270 0.5384375525
C -0.1857552559 -0.6883067396 0.0766601498
C -0.5495412248 -0.2215118255 -1.3354924055
N -1.8826403664 0.3929565532 -1.3450143001
C -2.1019341476 1.0265497342 -2.6590993661
C -1.1278634934 2.1380599448 -2.9111772838
C -0.4327740619 2.2947476391 -4.0352874034
C 1.2152483580 -1.2673918589 0.0258186830
O 1.4805159650 -2.2031565371 -0.7281994526
N 2.2146107091 -0.6374645253 0.7397441598
C 3.6136938861 -1.0006089904 0.4263082668
C 4.0754051735 -0.5303946103 -0.9555342283
C 3.8315640565 0.9469982034 -1.2465854024
N 4.3656616911 1.8565521655 -0.2207344205
C 5.8246852351 1.7753973056 -0.1101988689
C 3.9540863944 3.2347251140 -0.5083658716
C 1.9202821165 0.1415842641 1.9159854184
O 1.0409124363 -0.2147262204 2.7017424279
N 2.6945212772 1.2291688048 2.0448039474
C 2.7119779957 2.0497632757 3.2494641721
C 4.1062413258 2.0924029992 3.8676974773
H -2.8504380419 -1.4747207422 -1.7052204784
H -4.3675335725 0.9191368905 -0.5442079123
H -4.5606334008 0.2423614924 -2.1636929042
H -7.3688324435 -0.7274007378 -1.5311653023
H -8.0292991698 -2.7009134136 -0.1320351143
H -6.7190510691 -4.5264323880 1.7754374472
H -4.4717212409 -4.8795864406 2.7500306165
H -2.5644338875 -3.4473637654 2.1964824567
H -2.7003248979 -0.2904595219 1.1038047999
H -0.9984226747 -2.0131316844 1.5721697290
H -1.1221828604 -2.6190044338 -0.0878351464
H -0.2252187718 0.1803971937 0.7368721505
H 0.1784951206 0.5235254379 -1.6745302227
H -0.4948741663 -1.0802046218 -2.0315645407
H -2.0617030136 0.2914286062 -3.4864877350
H -3.1010598034 1.4735852520 -2.6658921563
H -1.0384846370 2.8702750509 -2.1078010321
H -0.4997698492 1.5718357238 -4.8453100878
H 0.2198104355 3.1499347627 -4.1829172426
H 3.7061762369 -2.0905461394 0.4835791203
H 4.2423117003 -0.5744458176 1.2109634638
H 5.1388917225 -0.7788163470 -1.0475965879
H 3.5567948752 -1.1057761563 -1.7280970601
H 2.7495303804 1.1261810999 -1.3031604991
H 4.2494336697 1.1892587757 -2.2420257612
H 6.3255081109 2.0094272359 -1.0670196280
H 6.1328211807 0.7754055617 0.2066142046
H 6.1694067763 2.4901153532 0.6433670060
H 4.3500761819 3.5961671767 -1.4740967382
H 2.8606562556 3.2930739182 -0.5407997943
H 4.3151382670 3.8994027229 0.2834410458
H 3.3630851713 1.4622893067 1.2825615634
H 2.3826729571 3.0657045861 2.9949734120
H 1.9847819208 1.6340947840 3.9515026901
H 4.8369342362 2.4871905174 3.1537686851
H 4.4257534235 1.0904687682 4.1703480919
H 4.1081771450 2.7400886276 4.7496088589
