64
CONF503
C 10.0168753399 -0.9101904339 2.2225054390
C 8.8173359493 -0.7113003655 3.1325581294
O 8.6653417823 -1.4010676847 4.1342563891
N 7.9332587675 0.2829649122 2.7938652845
C 7.9361610816 1.0504374573 1.5571896915
C 6.6902602765 0.7306558941 0.7339616536
N 5.4795192372 0.9722247575 1.5282559323
C 5.4857873442 0.1570392499 2.7409464051
C 6.7194098853 0.4805083312 3.5787972735
C 4.2745504944 0.9833106756 0.7790235776
C 4.1068640622 1.9514702838 -0.2250031988
C 2.9396752312 2.0240216717 -0.9613479171
C 1.8881208404 1.1398171742 -0.7034007840
C 2.0268220634 0.1809328800 0.2935883620
C 3.2175896734 0.1036045444 1.0189082657
O 0.7620761798 1.3103227542 -1.4708328357
C -0.2915315801 0.3671095675 -1.2949733616
C -1.4549773094 0.8818436628 -2.1263487441
C -2.1455780392 2.0793179035 -1.4822779972
O -3.0744450796 1.4413533910 -0.5946268920
C -3.5663587298 0.3320989998 -1.3136031046
O -2.4938372271 -0.1180749643 -2.1423354653
C -3.9334596124 -0.7951806430 -0.3324779891
N -2.7985291852 -1.2494172441 0.4407354327
C -1.9576862526 -2.2952318607 0.1219011925
C -0.9927097696 -2.3029306411 1.0948914177
N -1.2087495917 -1.2856512070 1.9983104996
C -2.2942345011 -0.6726344330 1.5761753464
C -4.7710163739 0.7044324254 -2.1860606878
C -5.8934516664 1.3903113373 -1.7053736847
C -6.9684861262 1.7084533031 -2.5297317353
C -6.9277513884 1.3236587959 -3.8624169903
C -5.8409581938 0.6315449623 -4.3785450764
C -4.7819132982 0.3322468893 -3.5327318746
Cl -8.2768548628 1.7213612401 -4.9005686065
Cl -6.0319262141 1.9048425644 -0.0326074164
H 10.6525275028 -1.6624297471 2.6875699181
H 9.7153027462 -1.2676957999 1.2323793962
H 10.5903570412 0.0125097842 2.0900300660
H 7.9388034622 2.1236086749 1.7999987219
H 8.8292890551 0.8323849904 0.9705694500
H 6.6747750965 1.3619227557 -0.1584672596
H 6.7364324410 -0.3247389154 0.3993805892
H 4.5881955971 0.3859692491 3.3251882733
H 5.4840656996 -0.9270696791 2.5150509887
H 6.7712781115 -0.1692340546 4.4541646824
H 6.6712762271 1.5286862140 3.9056844677
H 4.8938616205 2.6762556930 -0.4077633373
H 2.8130053189 2.7800043594 -1.7291758275
H 1.2274274460 -0.5111996934 0.5316952790
H 3.2974966145 -0.6628134450 1.7802849065
H 0.0142765818 -0.6305974859 -1.6379236161
H -0.5958751181 0.3004661418 -0.2414557293
H -1.1359600417 1.0794967713 -3.1557444690
H -1.4714528363 2.6977600939 -0.8875372696
H -2.6773437028 2.6945682158 -2.2213363697
H -4.7195302794 -0.4423903466 0.3394147663
H -4.3301309329 -1.6320529568 -0.9141693254
H -0.1633282578 -2.9882407117 1.2003912118
H -7.8201737773 2.2466572525 -2.1336034012
H -5.8221776663 0.3346637989 -5.4201121672
H -3.9222712516 -0.2020126195 -3.9189853182
H -2.1274182283 -2.9118842173 -0.7468905398
H -2.7648598046 0.1871507132 2.0342752565
