47
CONF75
C -6.8174437336 2.1607279767 1.7407342850
C -5.3324833994 1.8045237286 1.7434154332
C -4.4699104756 2.9382339566 1.1887378675
C -2.9842673633 2.6371336478 1.2083269977
O -2.6784441016 1.4493409208 0.4051019312
C -2.5340036970 1.6329085752 -0.9076950868
O -2.6098002642 2.6994653183 -1.4844911561
C -2.3222380284 0.3193844377 -1.6594316765
C -3.6694775164 -0.1906393117 -2.1521823833
O -1.7621003728 -0.7136238779 -0.8462463535
C -0.4729140963 -0.5678026258 -0.4087847970
C 0.3522010239 0.5163411629 -0.7156228166
C 1.6536778108 0.5510833832 -0.2145688284
C 2.1108736984 -0.4861559124 0.5779645147
C 1.2963526339 -1.5658761285 0.8957983526
C 0.0021493124 -1.6057986511 0.4002434744
O 3.3928991710 -0.3996392037 1.1416198331
C 4.4243193301 -1.0078977531 0.4984729253
C 5.6799113708 -0.9046358790 1.1151445865
C 6.7484588200 -1.5048248020 0.4881660382
C 6.5333777683 -2.1844315859 -0.7186672503
C 5.2502917625 -2.2252617977 -1.2422682950
N 4.2025128842 -1.6434743009 -0.6420276683
C 7.6850250195 -2.8245155767 -1.4181873958
F 7.3046281119 -3.5639316760 -2.4835539565
F 8.3883087635 -3.6458329932 -0.5930155423
F 8.5778371783 -1.9030658294 -1.8774993123
H -7.0072201451 3.0506118052 2.3510062731
H -7.1653738418 2.3724536442 0.7235793656
H -7.4235830040 1.3417459543 2.1399841451
H -5.0058613834 1.5712027131 2.7652580103
H -5.1706204272 0.8983429167 1.1475691315
H -4.7804937731 3.1841671700 0.1659147885
H -4.6188858773 3.8447473397 1.7906158094
H -2.6448660246 2.3670421693 2.2111497484
H -2.3923043754 3.4742768863 0.8301807850
H -1.6663005690 0.5330850721 -2.5126399857
H -4.3264554377 -0.4076500687 -1.3051948835
H -3.5212188091 -1.1020599257 -2.7361295790
H -4.1401318859 0.5636460061 -2.7870801783
H 0.0129156278 1.3376573543 -1.3355767361
H 2.3072087664 1.3861676379 -0.4440806178
H 1.6756736458 -2.3655029823 1.5235316594
H -0.6557468492 -2.4365222901 0.6328683676
H 5.7881087052 -0.3685689702 2.0504232145
H 7.7405283998 -1.4524879522 0.9254104382
H 5.0448846205 -2.7412897558 -2.1762741647
