45
CONF28
C -6.9383776336 1.1507209230 -0.3134400585
C -8.0083462721 1.5685135975 -1.3298569710
O -7.5376077654 2.4961073217 -2.3080035001
C -5.9903894204 0.1039181677 -0.8459170285
C -4.8182760169 -0.2210394953 0.1326000863
C -4.0008737050 -1.5143891859 -0.2122576370
C -2.5917724471 -1.6316221801 0.5027164478
C -1.3767520959 -1.0992919219 -0.3410516482
C -0.0969155336 -0.8399695811 0.5337733212
C 1.2233216407 -0.7695906955 -0.3153524165
C 2.4062894671 -0.0775191874 0.4541889565
C 3.8134261531 -0.4050510548 -0.1605692385
C 4.9317331421 0.5971601977 0.3009996310
C 6.3802806636 0.0341771518 0.1010545678
C 7.4990673118 1.1271248204 0.1498985308
F 7.3453151132 1.9044296287 1.2309989097
F 8.6907649536 0.5195256538 0.2191096403
F 7.4717290053 1.8901025183 -0.9474391924
F 6.4615786524 -0.5817297487 -1.1010522919
F 6.6381795606 -0.8613501727 1.0773264394
F 4.7614633062 0.8731227429 1.6139352816
F 4.8076811756 1.7409389002 -0.4083319969
F 4.1674197393 -1.6542102262 0.2149442299
F 3.7233709086 -0.3548712238 -1.5083615068
F 2.2187464532 1.2606112386 0.4175812221
F 2.3928810549 -0.4937131689 1.7399690165
F 1.5915584748 -2.0287509126 -0.6409379674
F 0.9797877793 -0.0716687138 -1.4467401030
F -0.2577904151 0.3342331905 1.1853848156
F 0.0302346252 -1.8357740998 1.4380953657
F -1.7109555862 0.0567502025 -0.9517266065
F -1.0823309008 -2.0249277245 -1.2832629225
F -2.3667988996 -2.9386217257 0.7531052672
F -2.6403554640 -0.9723996199 1.6860009558
F -3.8100776942 -1.6026947878 -1.5511882775
F -4.7381199538 -2.5767835563 0.1784001510
F -3.9926558092 0.8550945663 0.1553687189
F -5.3316697293 -0.3887534742 1.3786795958
F -6.6566872005 -1.0673517705 -1.1049393441
F -5.4263063740 0.5048854197 -2.0335563203
H -7.4261511582 0.7290197733 0.5707756309
H -6.3635539418 2.0275063734 0.0015330927
H -8.4556498641 0.6840667995 -1.8027200807
H -8.7977871748 2.0871498047 -0.7796705261
H -6.9950392178 2.0185932106 -2.9462400187
