39
CONF80
C 4.5586599019 2.2794231698 -2.0038790958
C 5.0283125835 1.1704946565 -1.0611238907
C 3.9549969731 0.1185581040 -0.7561784113
C 2.7405608583 0.6985705125 -0.0637921750
C 2.9890566214 1.3128678330 1.3048581178
O 1.7363759873 1.1236079392 1.9965271640
C 0.9847012635 0.1349393588 1.2866610983
C 0.6688023948 -1.0207084609 2.2546731430
N -0.1202942222 -2.0559248731 1.6128593109
C 0.2975776396 -3.0645924633 0.8205213796
N -0.7436150140 -3.7399708227 0.3501678573
C -1.8019554433 -3.0756736757 0.8951586613
N -1.4763974881 -2.0463476097 1.6662054221
O 1.8338025213 -0.3783304712 0.2842558637
C -0.2769949337 0.7514219158 0.6751157263
C -1.1999833481 1.5181574068 1.3928488685
Cl -0.9825037774 1.8756538787 3.1007283726
C -2.3544230091 2.0272015658 0.8071772110
C -2.5931096708 1.7507417017 -0.5316021398
Cl -4.0487089644 2.3853127290 -1.2782234085
C -1.7142054086 0.9848951764 -1.2836520617
C -0.5711938981 0.4946614518 -0.6657961201
H 4.1467741710 1.8570496698 -2.9272540992
H 3.7840334109 2.9025386506 -1.5456770870
H 5.3907924776 2.9360235812 -2.2751521819
H 5.3890973504 1.6099496818 -0.1221987826
H 5.8861519937 0.6547671760 -1.5068355794
H 4.3724387869 -0.6630501835 -0.1098219993
H 3.6319626438 -0.3598738509 -1.6888358597
H 2.2092890153 1.4109978134 -0.7113741235
H 3.2071919954 2.3833459057 1.2697193073
H 3.7897354134 0.7809539630 1.8365741632
H 1.6194753619 -1.4471929496 2.5849931240
H 0.1133539135 -0.6497274774 3.1164578382
H -2.8341404969 -3.3573838859 0.7291721181
H -3.0508922191 2.6197033193 1.3874995788
H -1.9154369885 0.7700561140 -2.3263947018
H 0.1204975305 -0.1130212922 -1.2377083058
H 1.3437503969 -3.2644624448 0.6307201665
