56
CONF6
O 4.5270363145 -0.7748233594 -4.5564850055
C 3.2649376806 -1.3710008540 -4.8246664916
C 2.7210283521 -2.0674409806 -3.5813717668
N 2.7040938737 -1.1450127032 -2.4416000139
C 2.6567996596 -1.8633644869 -1.1675217183
C 2.6895875438 -0.8865188068 -0.0001925266
N 1.5650960119 0.0367716077 -0.0953130404
C 1.4203466196 0.9005490772 1.0712367660
C 0.8394531592 0.1468354596 2.2738579762
C -0.3300834672 -0.7521131229 1.8585362746
N -1.3240859236 -0.0206277636 1.0704308042
C -1.7258824071 -0.5170016458 -0.1820122652
C -1.7191134705 -1.8873538469 -0.4674584336
C -2.0595316752 -2.3542344112 -1.7323268145
C -2.4641841084 -1.4709683933 -2.7264627890
C -2.5388603782 -0.1118162976 -2.4390339612
C -2.1582578403 0.3608120184 -1.1872811877
S -2.1412370045 2.1136402930 -0.8837233286
C -2.5022867555 2.1009803764 0.8522515989
C -3.1909422521 3.1663858257 1.4190154674
C -3.3487781778 3.2536863100 2.7987348292
C -2.8404889678 2.2362167377 3.5954197762
C -2.1899673787 1.1390636055 3.0335500543
C -2.0016401654 1.0553113110 1.6521190752
C -2.9524546010 2.2912749039 5.0896206815
F -3.4463651295 1.1347284881 5.6016393429
F -1.7375435557 2.4766023245 5.6738227795
F -3.7524364726 3.2917145234 5.5144516551
C 1.6345879851 0.7752956398 -1.3513118954
C 1.5846432261 -0.1980257283 -2.5177279081
H 4.4496294020 -0.4303069021 -3.6527245774
H 3.4073429326 -2.1096071685 -5.6214239598
H 2.5487190890 -0.6213221756 -5.1995292095
H 1.7195545422 -2.4947362068 -3.7867240490
H 3.3940639884 -2.8968314425 -3.3315647088
H 3.5237434837 -2.5320594342 -1.1088760471
H 1.7395390152 -2.4824956849 -1.0892242787
H 2.6217571391 -1.4535559235 0.9361778341
H 3.6608060482 -0.3498585242 0.0038765383
H 2.3727028467 1.3851892477 1.3627905222
H 0.7257488002 1.7033913789 0.7972242346
H 1.5928881366 -0.4912171330 2.7512143477
H 0.5358478583 0.8797641093 3.0291811971
H -0.7761940677 -1.2490293896 2.7323316664
H 0.0671159762 -1.5302638665 1.2077927772
H -1.4473711673 -2.5974226485 0.3047263448
H -2.0248073099 -3.4205000306 -1.9300396296
H -2.7381437094 -1.8328132627 -3.7111866071
H -2.8752869059 0.5936997063 -3.1921803534
H -3.5808785828 3.9484145062 0.7758349824
H -3.8607598707 4.0995104367 3.2398085593
H -1.8289433877 0.3502497519 3.6820340665
H 2.5566418963 1.3879009586 -1.4233038224
H 0.7724384688 1.4498273813 -1.4086381300
H 0.6110802973 -0.7279220295 -2.4999297676
H 1.6492936922 0.3624287475 -3.4564878811
