76
CONF18
C -0.5871211781 -1.9916052121 -1.0658249768
C -1.8377703784 -1.2443219781 -0.6281594969
C -3.0771179863 -1.8778386265 -1.1993479400
C -4.3308021789 -1.6969764177 -0.7592433839
C -5.4609231482 -2.4404361267 -1.4197598731
O -6.2235976911 -3.2169279837 -0.4744573424
C -4.7675357491 -0.7573146678 0.3434062717
C -3.8475445521 0.4340428162 0.6474088337
O -2.9280460940 0.1759486698 1.7279402963
C -4.6299753445 1.6912665345 1.1009793213
O -5.4981035361 1.6812330015 1.9641436958
C -4.1170986225 2.8518169813 0.3720436467
C -4.5885493099 4.2386976879 0.6404689262
C -3.2288562556 2.4225529948 -0.5468781090
C -3.0785030501 0.9310298607 -0.5875705951
C -1.7041034622 0.2925651657 -0.8854385064
O -1.4974255465 0.5882537907 -2.2703566121
C -0.5053982033 0.7947057860 -0.0324771680
C -0.3031402683 2.3103121099 -0.0285030066
C 0.8048411031 0.1477428923 -0.5250761574
O 1.7885877246 0.2901199343 0.5411861679
C 3.0100766694 0.7901622435 0.2263106173
O 3.2944279001 1.1607686920 -0.9107587657
C 3.9106329731 0.8342472086 1.3802155216
C 3.4801013222 0.3503888152 2.6290428596
C 4.2978547276 0.3695892172 3.7428186531
C 5.5921059680 0.8896043238 3.6189557699
C 6.0547807692 1.3750450167 2.4118076418
C 5.2378238262 1.3641216596 1.2536254343
N 5.7125537739 1.8422004485 0.0799794939
C 7.0410851444 2.3992542436 -0.0921909350
C 0.7456941442 -1.2963289663 -0.9519853390
O 1.7762907227 -1.6013636549 -1.9146864298
C 1.6296220087 -1.1808556334 -3.1835902211
C 2.7715667841 -1.6240548542 -4.0401173793
O 0.6714101167 -0.5384246326 -3.5805105203
C 0.4438562014 -2.4659455914 -0.0511246855
C 0.2419771539 -2.2698010773 1.4353871254
C 1.1407691160 -3.7767845081 -0.3636623507
H -0.6957857876 -2.6309404806 -1.9390116668
H -1.9213377812 -1.3271252792 0.4588161001
H -2.9336921375 -2.5651092269 -2.0326961886
H -6.1804921030 -1.7331611004 -1.8499790129
H -5.0770147819 -3.0781356180 -2.2272481101
H -5.6131485197 -3.8438469229 -0.0646590328
H -5.7482269434 -0.3573952598 0.0503403607
H -4.9549354474 -1.3104671578 1.2731576613
H -3.4618970452 -0.0142236794 2.5131833822
H -4.3708129794 4.5252230626 1.6754591322
H -4.1092541913 4.9547308858 -0.0305872899
H -5.6745341814 4.3081790199 0.5134676650
H -2.7335022240 3.0682761524 -1.2644966159
H -3.6649855843 0.6068378298 -1.4598166938
H -0.7135034830 0.1077068716 -2.6021191434
H -0.6881773729 0.4730536704 0.9945374667
H -1.0868633806 2.8163871225 0.5394272531
H -0.2911801668 2.7074340895 -1.0485353213
H 0.6525042964 2.5577860805 0.4448024727
H 1.1633242743 0.7257083624 -1.3818093365
H 2.4763621688 -0.0493280753 2.7077952595
H 3.9417949119 -0.0109728107 4.6936073497
H 6.2507287188 0.9145406996 4.4824458014
H 7.0615899616 1.7696497694 2.3484023441
H 5.0839584916 1.8065548348 -0.7095050058
H 7.2012671619 3.2779543313 0.5464032283
H 7.8249666690 1.6642702730 0.1331906905
H 7.1483541859 2.7070670962 -1.1335928783
H 2.6497756807 -2.6917174437 -4.2545456420
H 2.7693335094 -1.0677172464 -4.9766749225
H 3.7203276820 -1.4968629647 -3.5145444990
H 1.2046097317 -2.3624767324 1.9487821237
H -0.4246642979 -3.0499761906 1.8198987752
H -0.1799831601 -1.3022007126 1.7042808702
H 2.1596283835 -3.7774498914 0.0390200332
H 0.5874405693 -4.5941643110 0.1108287299
H 1.1935801069 -3.9747787883 -1.4355594514
