24
CONF4
C -1.0212088081 -1.9758017798 1.4758649968
N -1.4501214838 -0.7598327380 0.7997468508
C -0.6136514539 0.2542210312 0.3504711677
C -1.4251051237 1.2303457546 -0.2089462914
C -2.7691574277 0.8138197582 -0.1019244734
C -2.7443582117 -0.4213158397 0.5199945770
Br -4.1781732489 -1.5428880678 0.9465413075
Br -4.2890893770 1.7262586077 -0.6959939689
Br -0.8061362602 2.8065452437 -1.0160138647
C 0.8249248379 0.1957257673 0.4575341435
C 1.7303697966 -0.6466155722 -0.1709617453
C 3.0340508289 -0.2874457292 0.2325660307
C 2.8914380193 0.7796999897 1.1007690275
N 1.5637463534 1.0705388810 1.2441312837
C 1.0140102190 2.1134327245 2.0985378039
Br 4.2214805128 1.7522851334 1.9842925606
Br 4.6431169057 -1.0750900992 -0.3023286846
Br 1.2716589213 -1.9960624475 -1.3906147091
H 0.0489170551 -1.8956796665 1.6709195223
H -1.5608949181 -2.0889625931 2.4197247607
H -1.2035876837 -2.8503866269 0.8448872916
H 1.2775699856 3.1029408046 1.7142705485
H 1.3985328671 2.0042750008 3.1160435143
H -0.0718487995 2.0112110426 2.1027756975
