54
CONF43
C -3.3202028249 0.5354483281 -1.8613784019
C -2.5933282576 0.5966708600 -0.4936724293
C -3.1305566637 1.7913521871 0.3158352750
C -4.5795703343 1.6026504815 0.7556988403
C -4.7392925135 0.3331493409 1.5641687123
O -5.6005021720 0.2033098677 2.4215943383
C -3.8407302772 -0.7699480847 1.2055558530
C -2.8978914489 -0.6971452304 0.2448174308
C -2.1923830793 -1.9363047583 -0.2176750507
C -0.6814173718 -1.7436884921 -0.3422708582
C -0.3797795666 -0.5651173556 -1.2759312220
C -1.0491042564 0.7454914935 -0.8060650871
C -0.1913945528 1.4670383497 0.2441079993
O -0.4142056520 2.6175553959 0.5670473159
C 1.0496571756 0.7552999187 0.7241161908
C 1.9388618510 0.4178261803 -0.4948390998
C 1.1074939478 -0.3047186069 -1.6189255697
C 1.8964403668 -1.5812338517 -1.9596266665
C 2.5926316988 -1.9560563712 -0.6538347616
C 3.1036691635 -0.6141863854 -0.1310677966
C 3.4073990668 -0.6690477987 1.3629782063
O 2.6839614153 -1.2525742223 2.1518022220
C 4.6484270829 0.0296902815 1.8751913876
O 4.7359073882 -0.0171493882 3.2725524634
O 4.3068483442 -0.3483722995 -0.8588247963
C 2.5179143393 1.7347837706 -1.0279275520
H -3.2242379563 1.4988871787 -2.3726057887
H -2.9048157159 -0.2382400074 -2.5113861721
H -4.3826865306 0.3156346453 -1.7315570600
H -2.5278242399 1.9130749701 1.2179882980
H -3.0089457002 2.7133783194 -0.2610489196
H -4.9243244056 2.4451108028 1.3614423904
H -5.2625492850 1.5326138388 -0.1018005226
H -4.0380388016 -1.7132648167 1.7097899357
H -2.5947966443 -2.2077667041 -1.2059978245
H -2.4257645853 -2.7678713127 0.4537415619
H -0.2398456272 -2.6609040868 -0.7442644854
H -0.2644219954 -1.6088311670 0.6597228006
H -0.8415793591 -0.8370535384 -2.2358472977
H -1.0091757567 1.4540025410 -1.6483059383
H 1.5717533705 1.4201313932 1.4189605355
H 0.7813742444 -0.1516129735 1.2683532422
H 1.0887130942 0.3586687758 -2.4929112769
H 1.2609512348 -2.3797070217 -2.3550301641
H 2.6530188151 -1.3592401773 -2.7181325877
H 1.8960241710 -2.3734136300 0.0769828148
H 3.4220065030 -2.6579668259 -0.7780676407
H 5.5230608978 -0.4417682752 1.3993707008
H 4.6301459702 1.0772027731 1.5218445773
H 3.9754274350 -0.5462951075 3.5673020760
H 4.5186283329 0.5901353771 -0.8010968578
H 1.7110106774 2.4470904100 -1.2242557932
H 3.0584779160 1.5860612759 -1.9673444785
H 3.1795602887 2.2172194254 -0.2961221511
