28
CONF9
C -3.4102922591 -2.0433387496 -1.0332454886
C -3.8788484572 -1.3028073156 0.0508472267
C -3.1911569190 -0.1673800016 0.4705538392
C -2.0318954324 0.2472557191 -0.1892975959
C -1.5679508970 -0.4978311431 -1.2737027753
C -2.2519680792 -1.6376803493 -1.6921408794
C -1.3352917032 1.5153747502 0.2678981560
N 0.0757655880 1.5871639536 -0.0689824393
C 1.0160372358 0.8165917351 0.5149990864
C 2.3595424381 0.8246713301 0.0857264572
C 3.2418710558 -0.0043307008 0.7824882775
N 4.4581591220 0.1862755709 0.1748362359
C 4.2610552388 1.0959928309 -0.8331473206
N 3.0125184850 1.5077301858 -0.9234955043
N 2.9379387384 -0.8033085546 1.8165077876
C 1.6412974081 -0.7220047556 2.1285472201
N 0.6819913127 0.0201931438 1.5520623506
H -3.9415537793 -2.9323411509 -1.3586747409
H -4.7769438117 -1.6147419619 0.5755653080
H -3.5544744010 0.4013662172 1.3230005670
H -0.6630080825 -0.1911943383 -1.7901610892
H -1.8770968075 -2.2099976172 -2.5354771754
H -1.4590555265 1.6216135605 1.3507728958
H -1.8173765773 2.3821669180 -0.1977812742
H 0.3514037891 2.1047506563 -0.8889244630
H 5.3314709470 -0.2593583638 0.4175326164
H 5.0761424108 1.4179526212 -1.4689102820
H 1.3117184498 -1.3427834017 2.9615042997
