46
CONF102
C -3.3983584724 -1.2575059208 -0.2369333754
C -3.9114762085 -1.0274817508 1.1647546568
C -3.8251117093 -2.1186614049 2.2068653956
C -2.9359093284 -0.8678605840 2.3293176869
C -1.4789100884 -0.9141461008 2.1147329353
O -0.8511150650 -1.7327400351 1.4706131838
O -0.8912783675 0.1386501927 2.7415235309
C 0.5331907879 0.2804221424 2.5182479133
C 0.8453237373 0.7495127465 1.1209292590
C 2.0328741335 0.3406684457 0.5174880005
C 2.3547382253 0.8013413887 -0.7549521532
C 1.5003902495 1.6553691523 -1.4490724408
C 0.3174186754 2.0573058485 -0.8368409620
C -0.0124453017 1.6170519809 0.4423182145
O 3.5104889943 0.2948980887 -1.3203725241
C 4.2769335950 1.1115191917 -2.1356489670
C 4.5431856639 2.4387682672 -1.8052980956
C 5.3820913316 3.1833370925 -2.6290352052
C 5.9558325122 2.6099836067 -3.7629776610
C 5.6864519701 1.2785718425 -4.0722034958
C 4.8426202465 0.5231798573 -3.2623404544
C -3.2626500531 -3.4364445763 1.9086416644
C -3.6991047113 -4.5852876315 2.4256952390
Cl -2.9920663785 -6.1237800464 1.9976901110
Cl -5.0064146987 -4.7191141713 3.5733021548
C -5.1335199738 -0.1374202545 1.2245237919
H -2.4987967210 -1.8711674692 -0.2705005107
H -4.1778117220 -1.7458288236 -0.8315240207
H -3.1694777804 -0.2942292811 -0.7057047660
H -4.6327505586 -2.1181533190 2.9319087114
H -3.2432712736 -0.1636584066 3.0947940188
H 1.0376625740 -0.6656955176 2.7327184717
H 0.8411324831 1.0263689377 3.2564538409
H 2.7101000567 -0.3421667653 1.0219760459
H 1.7530019744 1.9919299421 -2.4485961482
H -0.3573401397 2.7200615232 -1.3697091558
H -0.9380857523 1.9389441255 0.9077735400
H 4.1024450025 2.8794100003 -0.9171657315
H 5.5941250807 4.2172917111 -2.3750725292
H 6.6101556467 3.1968878860 -4.3989601050
H 6.1296425584 0.8223324310 -4.9518362504
H 4.6198995207 -0.5139639928 -3.4902263252
H -2.4302239729 -3.5039554386 1.2181952917
H -4.9056151492 0.8461671917 0.7993166825
H -5.4810055384 0.0005751594 2.2520462109
H -5.9469647641 -0.5812872568 0.6401679326
