40
CONF167
C 3.4189580847 -1.2572697874 -0.8216738966
O 4.1039343498 -0.1749619788 -0.1391462801
C 4.3921394216 -0.3930943603 1.1538253123
O 4.1477116372 -1.4268335702 1.7425090020
C 5.0133201848 0.8294103896 1.7764241795
S 3.7163537934 1.7634789033 2.7092270375
C 2.5371551134 2.0941606451 1.4111797649
C 1.3403744084 1.3761957169 1.4055889775
C 0.3517130004 1.5776041790 0.4357385199
C 0.6173708811 2.5578831733 -0.5305053163
C 1.7877570857 3.2917301767 -0.5630675863
C 2.7459535830 3.0581107714 0.4152282308
Cl 4.2165062810 4.0042692768 0.3634832421
F -0.3249772165 2.8216325863 -1.4623985753
N -0.8568400073 0.8937952024 0.5058097306
C -1.2554546793 0.1683292011 -0.4745733248
N -2.5028326972 -0.4048505129 -0.5083180476
N -2.6218623939 -1.4247064082 -1.4708180025
C -1.6305268996 -1.4743917223 -2.4002441538
O -1.6134512971 -2.1517927783 -3.4102653072
S -0.3105656711 -0.3294306838 -1.9097972016
C -4.0006150241 -1.8255078232 -1.8036951665
C -4.7496767969 -2.1831907237 -0.5287349785
C -4.6721126054 -1.0237712857 0.4606144255
C -3.2214353547 -0.6726711501 0.7563493286
H 2.4715588923 -1.4720472320 -0.3215456505
H 4.0475162424 -2.1506439348 -0.8329675072
H 3.2449150993 -0.8943784733 -1.8335967939
H 5.4815623520 1.4759108959 1.0326205435
H 5.7404506288 0.5271400555 2.5337210115
H 1.1657015897 0.6263961170 2.1697827118
H 1.9337591973 4.0400074345 -1.3335886322
H -4.4920238507 -0.9918799178 -2.3246429509
H -3.9180934295 -2.6737219252 -2.4847239049
H -5.7890369462 -2.4038294266 -0.7889942011
H -4.3135024684 -3.0869518002 -0.0867760201
H -5.1853408846 -0.1456089152 0.0507760825
H -5.1590428592 -1.2849922583 1.4048073351
H -2.7156813864 -1.4943410963 1.2840427025
H -3.1416405543 0.2348129502 1.3550503424
