47
CONF17
C -2.2429667481 1.2516627141 3.2998374602
C -1.8277286599 1.3003901109 1.8465586384
C -2.8157746786 1.7464001874 0.7968234100
C -2.4770975212 0.2598338831 0.9349636424
C -1.7166701589 -0.3732974610 -0.1571133375
O -1.0402772907 0.1903997503 -0.9888111844
O -1.8704870203 -1.7303382289 -0.1043697903
C -1.1006069211 -2.4728970395 -1.0983616859
C -1.8682894783 -3.6842865333 -1.3720336521
N -2.4547471104 -4.6516587848 -1.6021030706
C 0.2899085970 -2.7647958681 -0.5819224760
C 0.5085506036 -3.8045622522 0.3210327657
C 1.7887397267 -4.0138668751 0.8210691375
C 2.8417702504 -3.1923102557 0.4377882321
C 2.6097277963 -2.1565590838 -0.4643712016
C 1.3368868085 -1.9394728222 -0.9867589857
O 3.7062845377 -1.4227848746 -0.8513149961
C 3.5380141802 -0.1070279368 -1.2546381265
C 4.2346997424 0.3015297362 -2.3851567487
C 4.1602240497 1.6326370711 -2.7831764839
C 3.3911266806 2.5417876156 -2.0629978787
C 2.7003702228 2.1157807978 -0.9312550281
C 2.7731036776 0.7913050461 -0.5157070544
C -4.1684198638 2.2026236209 1.1235077014
C -4.8229578613 3.1820398212 0.4963158713
Cl -6.4320814701 3.6591382281 0.9561994108
Cl -4.1682443793 4.0911091343 -0.8319914498
C -0.3789069303 1.6792915198 1.6429973272
H -2.1711489979 2.2493997770 3.7465151032
H -1.5765980640 0.5832860374 3.8545206786
H -3.2643008597 0.8908278542 3.4376643367
H -2.3604786816 2.2027534456 -0.0768128102
H -3.2132687196 -0.3798861357 1.4095619127
H -1.0439226425 -1.8726960305 -2.0135752987
H -0.3126495182 -4.4476467310 0.6199226745
H 1.9703947102 -4.8243619677 1.5190033565
H 3.8458295087 -3.3421196909 0.8189796499
H 1.1576583546 -1.1291615395 -1.6838695316
H 4.8259381273 -0.4236683908 -2.9332880784
H 4.7025888370 1.9567155456 -3.6654422080
H 3.3306339409 3.5770871280 -2.3802294813
H 2.1049408124 2.8209608171 -0.3600830624
H 2.2417576045 0.4523553521 0.3667821090
H -4.7002997148 1.7181620311 1.9360080832
H -0.1965346103 2.6671776006 2.0796515549
H -0.1096901177 1.7081918821 0.5860620474
H 0.2749998476 0.9605521166 2.1506643178
