25
CONF5
C -4.3204609453 0.1156127443 -1.4955607169
C -3.8996987403 0.3426155212 -0.0633260164
O -2.4475265978 0.2301195862 -0.0191085422
C -1.8731794496 0.4148642703 1.1862678736
O -2.5109860194 0.6649110180 2.2005778343
C -0.4131739552 0.2885942918 1.1724957083
C 0.3097174907 -0.0011276201 0.0739726400
C 1.7568508371 -0.1427511646 -0.0060816973
C 2.3273428088 -0.4536209691 -1.2521216403
C 3.7025889819 -0.6004540876 -1.3912116028
C 4.5341357891 -0.4388350469 -0.2857868543
C 3.9814233802 -0.1299799788 0.9592028354
C 2.6094786549 0.0169141982 1.1009095696
H -5.4091131713 0.1948581175 -1.5665589204
H -3.8762489355 0.8649720042 -2.1568011877
H -4.0240599854 -0.8798963122 -1.8379792744
H -4.1823863795 1.3378597398 0.2941870813
H -4.3271921022 -0.4043979411 0.6131614655
H 0.0448943988 0.4483296637 2.1431220957
H -0.2210286098 -0.1494327053 -0.8639215268
H 1.6778058350 -0.5794480592 -2.1138597465
H 4.1254152755 -0.8407014996 -2.3615359105
H 5.6085149905 -0.5525367026 -0.3901387547
H 4.6275719581 -0.0035950577 1.8222081241
H 2.1993143902 0.2571257781 2.0760237716
