38
CONF13
C 3.0003455995 1.4200405547 0.9101605598
C 2.6424574199 0.0228105071 0.5360897012
N 1.4080037507 -0.3938456469 0.8481426192
C 1.1212696085 -1.6515111696 0.4886637771
N 1.9540960221 -2.4988296074 -0.1211827128
C 3.1580439959 -1.9762434972 -0.3663682803
N 3.5617898959 -0.7323515613 -0.0738263010
O 3.9976204096 -2.8149775057 -0.9637378033
C 5.3316063168 -2.3339254944 -1.2690161025
N -0.1378222797 -2.1541947753 0.7456169443
C -1.2723347829 -1.5561151084 1.2999734380
O -2.3327346386 -2.1593873192 1.3231658488
N -1.0825680723 -0.2881681729 1.8107080737
S -2.3994404303 0.6911930908 2.2457962128
O -1.8098404194 2.0059250193 2.5076832579
O -3.1601354980 0.0161967812 3.2989853323
C -3.4568159244 0.7461104468 0.8019490208
C -3.1210670668 1.2389098680 -0.4487992597
S -4.4972696335 1.1438289490 -1.5042339610
C -5.4778865121 0.4590953792 -0.2690476655
C -4.7942239434 0.3011923291 0.9069075484
C -1.8355603322 1.7500341079 -0.9388459182
O -0.8058911357 1.7576324560 -0.2930334013
O -1.9407915149 2.2006380998 -2.2011440407
C -0.7126372967 2.7066535906 -2.7835139691
H 3.9752088991 1.6925564045 0.5074246218
H 2.2325085061 2.1092707100 0.5468899968
H 3.0198796549 1.5074727379 2.0021553831
H 5.8482147074 -2.0416136090 -0.3525307129
H 5.2807581966 -1.4875466916 -1.9571760825
H 5.8289594462 -3.1817429408 -1.7379469481
H -0.3006076270 -3.0993134534 0.4210633100
H -0.2070113717 0.1931231409 1.5450925508
H -6.5092948684 0.2031142283 -0.4742640891
H -5.2202937899 -0.1164974371 1.8087630707
H 0.0423592422 1.9174059676 -2.8046015701
H -0.3481169655 3.5570456760 -2.2029377296
H -0.9807788327 3.0135493451 -3.7930247092
