34
CONF168
C 0.2206963738 -0.1228490680 3.6942235835
C 0.6128803819 -0.0469565174 2.3646017374
C -0.2229977254 -0.4170293743 1.3034700117
C -1.4979480959 -0.8781186268 1.6510640973
C -1.9286790103 -0.9721049708 2.9706574560
C -1.0555187651 -0.5877586393 3.9779682060
Cl -1.5890881641 -0.6958997477 5.6459436032
Cl -2.6623960928 -1.3696170885 0.4243093143
C 0.2982820701 -0.2293193641 -0.1065926014
C -0.4352380048 0.8947329464 -0.8644192680
N -0.4180591916 2.1287199082 -0.0959133997
C -1.4094821357 2.6742132861 0.6343157849
N -0.9616894694 3.7354969704 1.2975815830
C 0.3500111641 3.7819354300 0.9330605663
N 0.7288869413 2.8244628346 0.0940695525
C 0.3326553467 -1.5122483289 -0.9318263452
O 1.2586481394 -1.2612070797 -2.0414051923
C 0.9131396212 -1.7715786943 -3.2309740051
C 2.0232387717 -1.4605878318 -4.2515425226
F 1.6493495193 -1.9569601758 -5.4653746749
F 2.1408886163 -0.1064325812 -4.3704370445
F 0.7403262591 -3.1369668002 -3.1879640789
F -0.2853358487 -1.2714560686 -3.6907340096
H 0.8948657920 0.1752244781 4.4882566603
H 1.6084729525 0.3196281021 2.1347323602
H -2.9231125987 -1.3342325855 3.2006929181
H 1.3417044118 0.0876539169 -0.0023159163
H -1.4815428176 0.6400881594 -1.0478127104
H 0.0562860691 1.0725591080 -1.8250446262
H -2.4167187849 2.2773091462 0.6427940699
H 1.0419744210 4.5366663634 1.2853227674
H 0.7363579176 -2.3414534670 -0.3452538107
H -0.6455076757 -1.7834668007 -1.3309573455
H 2.9846499190 -1.8924469293 -3.9544963132
