42
CONF29
C 3.8212801007 -1.4935067867 1.3142016162
C 3.4062674084 -0.2167076437 0.6686356174
N 2.1457601449 0.1973452548 0.8500538042
C 1.8295486805 1.3479082800 0.2326417622
N 2.6470427252 2.0722636024 -0.5332377094
C 3.8732269494 1.5526684630 -0.6457886699
N 4.3160635148 0.4295156965 -0.0709060126
O 4.6896344756 2.2670891684 -1.4132074076
C 6.0453808146 1.7837704875 -1.5911944842
N 0.5589362262 1.8620986739 0.3768295589
C -0.5543139638 1.4015775016 1.0881173763
O -1.6089832349 2.0139950453 1.0297652530
N -0.3581145477 0.2613901847 1.8309826863
S -1.6662718778 -0.6157395735 2.4883746703
O -1.0544160760 -1.8952476774 2.8696660337
O -2.3176206462 0.2036668997 3.5138080625
C -2.8167347648 -0.8370373524 1.1423368024
C -4.1312400487 -0.4240960387 1.3313891780
C -5.0679978933 -0.6291104284 0.3264109508
C -4.6715922032 -1.2341814647 -0.8627499312
C -3.3551705180 -1.6375146411 -1.0654244695
C -2.4058343382 -1.4450322560 -0.0589338075
O -1.1013502359 -1.7820432753 -0.1601829988
C -0.6581166280 -2.4493790305 -1.3525789584
C 0.8086543570 -2.7340400878 -1.1972467162
Cl 1.1135611630 -3.9470508529 0.1364905652
H 4.8301847051 -1.3988431407 1.7219114945
H 3.8473205608 -2.2819347689 0.5526202588
H 3.1149310599 -1.7870232363 2.0908674651
H 6.0377638725 0.7962393910 -2.0571607133
H 6.5612296262 1.7409291849 -0.6296946359
H 6.5145042942 2.5156142121 -2.2472701305
H -4.4081095294 0.0546339782 2.2633890705
H -6.0948192878 -0.3133329778 0.4708285411
H -5.3947339252 -1.3941946210 -1.6560826660
H -3.0765141209 -2.0962867229 -2.0056546504
H -0.7879214539 -1.7890596370 -2.2217447373
H -1.2316401203 -3.3708513511 -1.5053572739
H 1.2030759102 -3.1672681141 -2.1176601171
H 1.3650989716 -1.8323967620 -0.9337989519
H 0.5232509439 -0.2529586145 1.6859195788
H 0.3844522132 2.7251817416 -0.1229366126
