39
CONF31
C -0.6909003966 -5.2446098355 2.5351875051
C -0.7565613338 -4.1672704928 1.4952691989
C -1.8124798043 -3.2508015467 1.4424102603
C -1.8761719489 -2.2249463631 0.4835176412
C -0.8662666986 -2.1893941263 -0.4904258163
C 0.1813112864 -3.0958171869 -0.4816847284
C 0.2350708370 -4.0562480561 0.5187547548
Cl -0.9367332604 -1.0002989328 -1.7761415339
N -2.9518395703 -1.3013395064 0.4961629501
S -2.8044241439 0.0842811065 1.4911703710
O -4.0802973746 0.7881952700 1.3693884628
O -2.2681264708 -0.3581419562 2.7767284914
C -1.5436581425 1.0959044114 0.7082217279
N -0.2656909851 0.8798709942 1.0065233802
N 0.3321385300 1.7307838564 0.1343805181
C 1.6778911115 1.9422130628 -0.0348168542
C 2.0334167754 2.8561672659 -0.9944730809
C 1.0055901818 3.5026971432 -1.7286033070
N -0.2924397828 3.2992718240 -1.5674327790
C -0.6184376052 2.4052986438 -0.6330559784
N -1.8348731293 1.9896189503 -0.2562325346
O 1.4358984536 4.3743219628 -2.6440268032
C 0.4342735726 5.0649348783 -3.4302888694
O 2.4471021663 1.2232563667 0.7580847768
C 3.8812930577 1.3972953141 0.6174260330
Cl -3.1281156734 -3.4322168499 2.5790335420
H -1.5489458364 -5.9203996038 2.4558751961
H 0.2238843898 -5.8274714199 2.4155847525
H -0.7088724692 -4.8192406912 3.5436721465
H 0.9492973960 -3.0460817977 -1.2443961411
H 1.0639536852 -4.7566208920 0.5340198595
H -3.2732959923 -1.0197680436 -0.4293803812
H 3.0681300537 3.0871618402 -1.2023076596
H -0.1608252122 4.3474960975 -4.0000723740
H 1.0018873289 5.7111316140 -4.0984308283
H -0.2157991382 5.6559668857 -2.7810931369
H 4.1532853057 2.4332488717 0.8367795669
H 4.1919152073 1.1175729560 -0.3928232881
H 4.3184164347 0.7239786943 1.3517559778
