41
CONF44
C 3.7570857143 -3.4226208342 -3.0548630730
C 3.5969675524 -3.0908422147 -1.5949133692
O 2.7985220065 -1.8512295265 -1.5323401399
C 2.5300754133 -1.3745661983 -0.3430212275
N 2.9147404953 -1.9169571834 0.7840218579
C 2.5648480609 -1.3153796657 1.9259683500
C 1.8325400641 -0.1673957199 2.0664274870
C 1.4189241905 0.4064885006 0.8573875037
N 0.6942221195 1.4897351176 0.5604966231
C 0.6643428071 1.4502173570 -0.7905974670
N 1.2913576905 0.4569383837 -1.4054730572
N 1.7845926851 -0.2222636851 -0.3326091954
S -0.3011656867 2.6472443398 -1.7300637104
O 0.0260155044 2.4679331806 -3.1428337123
O -0.1678640762 3.9329740182 -1.0484137558
N -1.9116009547 2.1118403647 -1.5464817006
C -2.5436459899 2.3281148348 -0.2922062617
C -2.6056838431 1.3284280690 0.7049015831
C -3.2379067309 1.5963678393 1.9211862990
C -3.8074333354 2.8384693711 2.1619653949
C -3.7777957505 3.8217979232 1.1820086395
C -3.1622669069 3.5589783719 -0.0364649543
Cl -3.2406319592 4.7861883621 -1.2777664279
C -2.0557742218 -0.0306081396 0.4499090495
O -1.8705162672 -0.5094741012 -0.6588917139
O -1.8078345678 -0.6959748598 1.5844161232
C -1.3758953239 -2.0723586408 1.4258456392
F 2.9988996945 -1.9448882579 3.0251768754
H 4.2824700047 -2.6232279406 -3.5835733527
H 2.7861062180 -3.5902774066 -3.5278266312
H 4.3466592480 -4.3398497860 -3.1399033225
H 3.0531141093 -3.8631152092 -1.0446874161
H 4.5517299789 -2.8946834101 -1.1000797836
H 1.5828238447 0.2657098102 3.0249520970
H -1.9590631935 1.1284180207 -1.8287831622
H -3.2881674378 0.8198797015 2.6737841933
H -4.2954160424 3.0399436700 3.1091199807
H -4.2466126182 4.7849597414 1.3475332042
H -0.4746137136 -2.1213014724 0.8108311511
H -1.1742348689 -2.4251433116 2.4359387048
H -2.1719142945 -2.6578293184 0.9599221699
