29
CONF4
C 4.9532589402 1.1166782982 -0.9563232650
N 4.2483822551 0.0601773656 -0.2420001488
C 2.9270153808 -0.0573794011 -0.0346741437
C 1.9817558070 0.9112583132 -0.5208390197
N 0.6980026845 0.8371212916 -0.3291107389
N 0.2017317090 -0.1916164363 0.3643121023
C 0.9654338934 -1.2752545862 0.8802074064
O 0.4089792051 -2.2248770746 1.4401047017
C 2.3644788792 -1.1254235343 0.6603699826
Cl 3.3860133016 -2.3971308002 1.2775926940
C -1.2241327788 -0.2019530045 0.4956075545
C -1.8125303287 -0.3698074501 1.7483361489
C -3.1968694888 -0.3507795727 1.8577135334
C -3.9954490784 -0.1598711886 0.7324085331
C -3.3896395302 0.0109707927 -0.5084066307
C -2.0019628176 -0.0127876243 -0.6388263840
C -4.2065959936 0.2315050622 -1.7464812293
F -3.9055621417 -0.6704167814 -2.7183942766
F -5.5348141256 0.1405722144 -1.5217474184
F -3.9808791415 1.4595373925 -2.2883272379
H 4.2635375927 1.8551750139 -1.3588990251
H 5.6481327799 1.6263745479 -0.2808580287
H 5.5211930600 0.6885541528 -1.7885669924
H 4.8294300792 -0.6711675844 0.1426805730
H 2.3054242123 1.7788436708 -1.0827214735
H -1.1913305858 -0.5030865704 2.6254018050
H -3.6593738512 -0.4753279487 2.8307747474
H -5.0746931060 -0.1420969295 0.8258426412
H -1.5289366111 0.1122085727 -1.6068765074
