61
CONF3
C 0.4030264603 3.5021680078 -2.7411556306
O -0.1498814278 3.0962782515 -1.4767390108
C 0.6982674003 2.8137030856 -0.4548302800
C 2.0878165127 2.9102660135 -0.5804790728
C 2.9211369302 2.5851056340 0.4821657601
C 2.3563655374 2.1551545790 1.6745815766
Cl 3.4028865929 1.7107845943 3.0199176050
C 0.9841660655 2.0540958557 1.8204371946
C 0.1297068740 2.3869555343 0.7666062916
C -1.3402093184 2.2156251614 1.0510103414
O -1.7042568825 1.4697075536 1.9690680016
N -2.2032640136 2.9504598939 0.3143946618
C -3.6477371663 2.8258773358 0.4290809469
C -4.2525846730 1.9930104281 -0.7206228788
C -3.6744727288 0.6083241361 -0.7549230081
C -4.1379886506 -0.3733937534 0.1292910411
C -3.5428415293 -1.6249679684 0.1833969161
C -2.4775405440 -1.8935622105 -0.6756155876
C -2.0106995396 -0.9500232508 -1.5858352129
C -2.6171378901 0.3007852329 -1.6153301891
S -1.6396744769 -3.4625218009 -0.5387607069
O -0.8700954888 -3.6992678326 -1.7707258976
O -2.5722549188 -4.4799543486 -0.0368904856
N -0.5019538173 -3.2605134101 0.7275277357
C 0.4462267146 -2.1857553174 0.7495146314
O 0.6568867243 -1.6033340338 1.8117347840
N 1.0566011928 -1.9264206975 -0.4167948835
C 2.0329233097 -0.8374480070 -0.5607184846
C 2.1094961585 -0.4171662604 -2.0313122441
C 2.7721379957 -1.4778273745 -2.9166330040
C 4.1517057148 -1.8593935482 -2.3738209131
C 4.0599928084 -2.3241705687 -0.9183567257
C 3.4157279771 -1.2516461468 -0.0377526061
H 1.0421742384 2.7139364726 -3.1526980408
H -0.4564690408 3.6604245379 -3.3920087971
H 0.9687415829 4.4338740639 -2.6368234461
H 2.5373329335 3.2307393219 -1.5113065027
H 3.9968995933 2.6599147898 0.3703185583
H 0.5448987814 1.7072097553 2.7478274669
H -1.8333634624 3.4686270019 -0.4701598832
H -4.0923124788 3.8266731359 0.4161466931
H -3.8723282482 2.3593129742 1.3907572842
H -5.3362378619 1.9520272587 -0.5659904561
H -4.0657480730 2.5038108159 -1.6709240596
H -4.9666380281 -0.1472393612 0.7941790191
H -3.8972776556 -2.3788472443 0.8778371519
H -1.1948334098 -1.1870438769 -2.2581896373
H -2.2595438774 1.0492656564 -2.3159425082
H -0.9672143465 -3.3348263661 1.6305186657
H 0.8924042540 -2.5457671609 -1.1985627834
H 1.6582772879 0.0000723119 0.0365451080
H 2.7063555096 0.5017668710 -2.0711296920
H 1.1074464625 -0.1641657369 -2.3983105624
H 2.1440285269 -2.3781892186 -2.9811591069
H 2.8552942029 -1.0938459656 -3.9396160026
H 4.8140368365 -0.9838040797 -2.4306995491
H 4.5999253140 -2.6421721954 -2.9964604802
H 3.4638338820 -3.2460640389 -0.8677530149
H 5.0552169106 -2.5710920488 -0.5319423014
H 3.3245762205 -1.5958401512 0.9981818147
H 4.0490813461 -0.3540555193 -0.0260735115
