36
CONF159
C 3.0749742502 -3.0422584814 -2.6054593157
C 3.3883783725 -1.9501053001 -1.6076969366
O 2.2121001215 -1.6512828101 -0.7814492420
C 1.3243496056 -0.7918848426 -1.2865545168
O 1.4018036333 -0.2524247885 -2.3701309119
C 0.2224508387 -0.5466106715 -0.2613771990
S -1.2504930493 0.0777851301 -1.2132000726
P -2.8546188650 -0.4030867179 0.1080278099
S -2.5184392399 -1.8299339448 1.3853970803
O -4.0697081807 -0.7451638102 -0.8775308885
C -4.5170589374 0.1995504771 -1.8978023936
O -3.3631973896 0.9996796929 0.7180759543
C -2.5192744617 1.7460888230 1.6341514176
C 0.7088848104 0.4185692642 0.7924331619
C 1.1093655157 1.7126245093 0.4464658474
C 1.5540263211 2.5912288887 1.4272701453
C 1.6032700094 2.1852207642 2.7610659346
C 1.2156871502 0.8936669385 3.1067449403
C 0.7726821230 0.0099228450 2.1250645327
H 2.7286388534 -3.9451471736 -2.0949976748
H 2.3132257821 -2.7190735511 -3.3193978551
H 3.9857886008 -3.2878802609 -3.1602829362
H 3.7130437476 -1.0266493912 -2.0930947731
H 4.1392371490 -2.2671312190 -0.8820979406
H -0.0580086198 -1.4966130123 0.2010765629
H -5.3844818145 -0.2685087981 -2.3618471617
H -3.7321384583 0.3468835386 -2.6449999273
H -4.7967371708 1.1491942889 -1.4377336196
H -1.6048761075 2.0656787340 1.1248297609
H -2.2726658416 1.1325064801 2.5052854246
H -3.1062777173 2.6134758943 1.9347347505
H 1.0575407180 2.0357448419 -0.5894973116
H 1.8591712938 3.5959441270 1.1523392534
H 1.9443196566 2.8747165077 3.5268283972
H 1.2536142568 0.5713464949 4.1425817208
H 0.4654238425 -0.9960732607 2.3927776802
