75
CONF40
C 4.6902500402 0.4498216638 -3.4067009017
C 5.5037140323 -0.8453732784 -3.4293997576
C 6.7434489466 -0.6938311328 -4.3130432407
C 5.8591709539 -1.3527008469 -2.0028106512
C 6.7141124619 -0.3726770514 -1.2008497739
C 4.6056088504 -1.7815890154 -1.2879723154
C 4.1773611094 -1.3856690194 -0.0884245166
C 2.9142913490 -1.8626524547 0.5779176774
C 3.2819803927 -2.6619054275 1.8370839240
C 2.0020813275 -0.6527772845 0.8653968839
C 1.6725832034 0.1337599183 -0.4385472003
C 0.2424058017 0.7048703252 -0.2792412229
C -0.0747144628 0.4684120461 1.1943072293
C -1.4802533372 0.5380421775 1.7066956666
C -1.5298911635 0.3370757554 3.1997213284
C -0.8113299963 -0.9583329134 3.6228582135
C 0.6055602272 -1.0637672339 3.0442067292
C 0.6130938152 -0.8973142375 1.5180349652
C -0.1163906515 -2.0595735874 0.8316554719
C -2.5485476793 0.7457065161 0.9044069510
C -3.9325075312 0.8159869861 1.3221279501
C -5.0105272627 0.9924793895 0.5254808165
C -4.9445921290 1.1574595535 -0.9697221177
C -5.5178291803 2.5197008356 -1.3863552644
O -5.5389815057 2.6630889548 -2.8170190870
C -6.9443892608 2.6672465701 -0.8880905114
C -7.0180534407 2.4581619598 0.6239897096
C -6.4224834397 1.1013395730 1.0607649479
C -6.5737537986 0.9124479574 2.5664661081
H 3.8075404184 0.3517496944 -2.7664633229
H 5.2902093837 1.2867175193 -3.0321997820
H 4.3546258414 0.7089878956 -4.4163983107
H 4.8739791299 -1.6277790219 -3.8775340480
H 7.3781617748 0.1321767896 -3.9740120848
H 7.3467974520 -1.6085494665 -4.3128989431
H 6.4516118852 -0.4795102130 -5.3467115290
H 6.4587383981 -2.2642599799 -2.1609500299
H 6.1696553756 0.5511686126 -0.9797704071
H 7.0154300827 -0.8162564110 -0.2466508986
H 7.6235216809 -0.1079705526 -1.7469814086
H 3.9864706806 -2.4919114477 -1.8425433676
H 4.7665672622 -0.6749034989 0.4940515630
H 2.3936365040 -2.5292852544 -0.1233699284
H 4.0209219290 -3.4318173997 1.5922898197
H 2.4107731478 -3.1590042540 2.2697076158
H 3.7164773855 -2.0060695016 2.6008937294
H 2.5519007341 0.0138849514 1.5479238023
H 2.4095854818 0.9246432288 -0.6066204541
H 1.7352086185 -0.5346377394 -1.3044011522
H 0.1753308462 1.7631693592 -0.5501653076
H -0.4592967797 0.1619782065 -0.9211109882
H 0.5044624790 1.2089102459 1.7742298787
H -1.0115795902 1.1852767721 3.6731136945
H -2.5524616149 0.3331378473 3.5840119406
H -1.4090960633 -1.8200395917 3.3023442495
H -0.7640718672 -1.0012930201 4.7171443931
H 1.0411396394 -2.0223459945 3.3413645277
H 1.2341579489 -0.2747008429 3.4818539221
H -1.1838849185 -2.0573505075 1.0697070681
H 0.3003136032 -3.0192997916 1.1549791862
H -0.0229359471 -2.0067146096 -0.2572679387
H -2.3465695659 0.8792997326 -0.1547858914
H -4.1157717077 0.7141810381 2.3871591661
H -5.5608219581 0.3825483297 -1.4500877321
H -3.9266725108 1.0561378283 -1.3553286250
H -4.8936854406 3.3141213829 -0.9445323969
H -4.6270838759 2.6092356761 -3.1303168699
H -7.3305631964 3.6565501007 -1.1592661710
H -7.5660568710 1.9181841736 -1.3980224126
H -6.4675306873 3.2587449870 1.1376404875
H -8.0608146836 2.5188531017 0.9565062955
H -7.0153164581 0.3208375096 0.5549561988
H -6.1919167201 -0.0592945766 2.8951781346
H -6.0410270441 1.6943369414 3.1195672669
H -7.6314761400 0.9707250836 2.8417115540
