53
CONF12
C 2.0642195272 0.4950077991 -0.1837090192
C 0.5861590581 0.8409190351 -0.1286356351
N -0.2302290448 -0.3703299487 -0.2962175156
C 0.1054607756 -1.3072810262 0.7843214447
C 1.5814875414 -1.6674623854 0.7305331450
N 2.4067801952 -0.4636243047 0.8769470119
C 3.8521596105 -0.7548280839 0.9156766881
C 4.5468888195 -0.0156288536 2.0487269165
O 4.4067939178 1.3937293010 1.8662403885
C 3.9925431587 2.1252274711 3.0234212475
C 2.4771000025 2.2314593064 3.1165509606
O 1.8402966676 0.9790786407 3.3070050531
C -1.6619069527 -0.0348540751 -0.2917361355
C -2.5291657729 -1.2832216536 -0.3374597591
C -3.5216252207 -1.4838625341 0.6194020247
C -4.3406557002 -2.6094426105 0.5681491451
C -4.1680190403 -3.5501031635 -0.4405775976
C -3.1730662012 -3.3586900935 -1.3977316858
C -2.3629634879 -2.2314097362 -1.3493205934
C -2.0279175013 0.8623748578 -1.4634389198
C -1.4085574889 0.7330919768 -2.7075201702
C -1.8010625439 1.5157703963 -3.7867769399
C -2.8295940556 2.4349400049 -3.6160408693
C -3.4620755667 2.5871915353 -2.3889986325
C -3.0510045058 1.7982320478 -1.3203551974
Cl -3.3310527556 3.4281567952 -4.9736727243
H 2.6639095763 1.3989124773 -0.0394171341
H 2.3006086387 0.0763615318 -1.1810438828
H 0.3594683924 1.3398159938 0.8349569496
H 0.3550477371 1.5472656487 -0.9315569806
H -0.4870000492 -2.2193133187 0.6683933269
H -0.1279871518 -0.8738793176 1.7775425710
H 1.7932220891 -2.1901832779 -0.2221198180
H 1.8098770418 -2.3535480418 1.5546666646
H 4.0095754756 -1.8305748767 1.0686602362
H 4.3270999392 -0.4974656471 -0.0440423254
H 5.6175443809 -0.2787037417 2.0510998201
H 4.1122126520 -0.3263508764 3.0069366720
H 4.4237086798 3.1302224363 2.9266523457
H 4.3966446927 1.6632716365 3.9362180211
H 2.1014874042 2.7385784305 2.2106944444
H 2.2218710948 2.8630416855 3.9779349411
H 1.9817947075 0.4536343150 2.4837746390
H -1.9254613117 0.5110884948 0.6371950424
H -3.6514444405 -0.7562856444 1.4160949136
H -5.1097711781 -2.7520217221 1.3206628406
H -4.8030639639 -4.4290942129 -0.4824942087
H -3.0318547345 -4.0902382539 -2.1872481673
H -1.5879261743 -2.0846345909 -2.0944411034
H -0.5960620886 0.0231043154 -2.8243396922
H -1.3137401308 1.4178283557 -4.7500323495
H -4.2582281318 3.3129982497 -2.2713721413
H -3.5425260057 1.9117291571 -0.3578856496
