39
CONF20
C 2.4061936312 1.8395783416 -2.2429204225
C 0.9162443331 2.1370169182 -2.0527721748
C 0.6418442792 1.6828904886 -0.5969539161
O 1.7694458528 0.8377775396 -0.2420266067
C 2.5907741760 0.6132101691 -1.3794042167
O 2.1462411499 -0.5180456345 -2.1259857538
C 2.3953862208 -1.7485899438 -1.4692789146
C 1.6198458080 -2.8158402310 -2.2056927092
F 1.9802192365 -2.9087789718 -3.5074409595
F 1.8355692048 -4.0260687894 -1.6384181790
F 0.2852950414 -2.5896449219 -2.1820357689
C 0.7021472406 2.8941409252 0.3600612127
N 0.5757172785 2.5003298787 1.7528713869
C 1.5231393612 2.0207576960 2.5829441712
N 0.9853990128 1.6879506282 3.7513374244
C -0.3321512223 1.9865926799 3.5696084315
N -0.6310280028 2.4795653822 2.3744064356
C -0.6478116361 0.8954948364 -0.3970200777
C -1.9088375458 1.3440778514 -0.8060167701
C -3.0731924733 0.6165057871 -0.5824521771
C -2.9761788220 -0.5928709164 0.0897268011
C -1.7560720592 -1.0724720358 0.5413525471
C -0.6156810493 -0.3201743718 0.2928263211
Cl -4.4384444212 -1.5214009455 0.3783266345
Cl -2.1205309867 2.8919970036 -1.6191111325
H 3.0243979004 2.6473534154 -1.8410681355
H 2.6820185348 1.6652166937 -3.2840665176
H 0.3122098198 1.5512389937 -2.7490656724
H 3.6066414199 0.4379788568 -1.0057408722
H 2.0474944792 -1.7452354286 -0.4290762259
H 3.4608691234 -2.0171384166 -1.4967568105
H 1.6650466685 3.3957203178 0.2274303536
H -0.1011133580 3.5983163176 0.1368348140
H 2.5645598621 1.9455405348 2.3006740742
H -1.0878380214 1.8465958058 4.3324751857
H -4.0302450843 0.9923559270 -0.9226763638
H -1.6902355860 -2.0115023224 1.0781808772
H 0.3373110404 -0.6816697494 0.6555911687
H 0.6830814053 3.1925659542 -2.1979615292
