43
CONF2
C -0.8693430219 2.5250828397 0.1264528883
C 0.3143552471 1.9155137891 0.8740826780
C 0.7034530887 2.7725894090 2.0788639389
C 0.0088342436 0.4773223776 1.3661484254
C -0.2247327603 -0.4961601284 0.2471690746
C 0.8598788397 -1.0130840854 -0.4881308278
C 0.5901577641 -1.8472703704 -1.5777426384
N -0.6351723267 -2.1915569101 -1.9533470417
C -1.6649070161 -1.7212151447 -1.2557369382
C -1.5157855329 -0.8744599053 -0.1546856811
C -2.7146203026 -0.4276249187 0.6324177386
O -2.9314304980 -0.7800198888 1.7724254471
O -3.4877367121 0.3877935757 -0.0831945154
C -4.7031996641 0.8408863240 0.5758665044
C -3.0011591298 -2.2068986649 -1.7728805441
F -3.5525368392 -1.2643038247 -2.6133309467
F -3.8922646894 -2.3920885782 -0.7430256443
C 1.6995683154 -2.4067870113 -2.4612924737
F 1.2809530087 -3.4552473108 -3.1895671125
F 2.1438070432 -1.4664609409 -3.3317542609
F 2.7658705824 -2.8223282354 -1.7418743744
C 2.2553194380 -0.6787763697 -0.1048132906
N 2.9587461468 0.1781691779 -0.7234380427
C 4.2625483693 0.3827793072 -0.0816839174
C 4.6218786203 -0.8412683315 0.7746256526
S 2.9936050065 -1.5300916860 1.2969917823
H -1.1432764145 1.9387628762 -0.7566640212
H -1.7481325249 2.5869570676 0.7802951824
H -0.6246110250 3.5384552666 -0.2073651169
H 1.1700869500 1.8651805534 0.1906767311
H 0.9459475262 3.7920025120 1.7624039501
H 1.5744360987 2.3561987815 2.5956837840
H -0.1258424617 2.8273892383 2.7940813828
H -0.8614771690 0.5127374262 2.0262885631
H 0.8551811112 0.1328761758 1.9681813922
H -5.3273352206 -0.0194248852 0.8271807722
H -4.4481595293 1.3992883239 1.4790118802
H -5.1982473694 1.4823397759 -0.1508879967
H -2.9013734727 -3.1450239115 -2.3263694048
H 5.0294040604 0.5635744691 -0.8409247476
H 4.1826436285 1.2877599439 0.5375303809
H 5.2087554865 -0.5763768654 1.6558049354
H 5.1459131262 -1.6071917516 0.1965267490
