53
CONF148
C -3.5909026849 -2.9949847971 -3.0392412896
O -3.3094881079 -2.0654421339 -1.9551671638
C -3.4609955316 -0.7729699246 -2.2468607496
O -3.7716124245 -0.3305249926 -3.3283430872
C -3.2514052615 0.1040389142 -0.9919692192
C -4.4834748108 -0.0829962688 -0.0698831265
C -4.0115031803 -1.1228583432 0.9188427674
C -2.6134903493 -1.2475061526 0.8978080955
C -2.0991638641 -0.3422642233 -0.1133617834
N -0.9326556847 0.1972498939 -0.1029631537
N -0.7173263801 1.1883302215 -1.0157322823
C -1.7659396152 1.5901641589 -1.9735350144
O -3.0452653876 1.4539210407 -1.3725921174
C 0.4842631300 1.8529892197 -1.0400645522
O 0.8006555029 2.5751898291 -1.9737835618
N 1.3519802815 1.6012829470 0.0529988789
C 2.7446199921 1.4590392267 -0.2412449469
C 3.6767585233 2.3242564189 0.3283111007
C 5.0244579907 2.1819356060 0.0242438016
C 5.4055208434 1.1858342191 -0.8624058860
C 4.4906155082 0.3327578852 -1.4589336713
C 3.1459083784 0.4677039681 -1.1340129319
O 6.7671916744 1.0896239043 -1.2309606421
C 7.5304149320 0.2689297291 -0.4755932229
F 7.5656074371 0.6336579450 0.8270209526
F 8.7774748839 0.3115396624 -0.9571932774
F 7.1081868342 -1.0164579432 -0.5041894912
C 0.8732557453 1.7031991586 1.3646359984
O -0.1479160524 2.2799482309 1.6741265359
O 1.7089256885 1.0931287570 2.2152582057
C 1.3590116292 1.2318409975 3.6159614554
C -1.9511193290 -2.0968068001 1.7790231550
C -2.7036570854 -2.8450783825 2.6772988633
C -4.0930901325 -2.7188611587 2.6741088147
C -4.7722572501 -1.8625781761 1.8091503136
Cl -5.0271985451 -3.6810699467 3.8095064470
H -3.4292695040 -3.9839529563 -2.6142867282
H -4.6252140330 -2.8759779338 -3.3684469675
H -2.9071951513 -2.8110678096 -3.8704092348
H -4.6749525085 0.8707878372 0.4358971584
H -5.3874000855 -0.3716119611 -0.6123048115
H -1.6254870805 2.6429806704 -2.2168725406
H -1.6908919771 0.9769494602 -2.8814264461
H 3.3505151511 3.1085583143 1.0027984082
H 5.7677504942 2.8454408141 0.4513283922
H 4.8252045092 -0.4261624219 -2.1568964801
H 2.4087330146 -0.1956740004 -1.5748847528
H 2.1537613407 0.7211783919 4.1575918134
H 0.3936070083 0.7580642496 3.8071754341
H 1.3198231121 2.2882670295 3.8906644198
H -0.8701514490 -2.1876474735 1.7597024473
H -2.2223787902 -3.5274587804 3.3682187925
H -5.8528427781 -1.7788359408 1.8418865628
