49
CONF83
C -2.8976191849 0.8762783645 4.1814346857
C -3.3391627210 0.0875594905 2.9664058201
C -2.2965531705 -0.6204345998 2.0781941494
C -3.0904073884 0.6145406908 1.5851017717
C -4.0827135375 0.3406750667 0.4715462093
C -2.3752247050 1.9331307957 1.3814284456
C -0.8591943879 -0.5652924365 2.3284677925
O -0.2009101826 0.3089951908 2.8537180652
O -0.2670874685 -1.7212504121 1.8502425901
C 1.1713053836 -1.7418643613 1.9706167118
C 1.5531403296 -3.1477969494 1.8264758477
N 1.8955580839 -4.2439425528 1.7045360642
C 1.8523155930 -0.8886667828 0.9171551255
C 2.9045430172 -0.0510508404 1.2786934339
C 3.5179893607 0.7300168915 0.3027182929
C 3.0908436684 0.6847213216 -1.0199613721
C 2.0411042865 -0.1677656083 -1.3638471539
C 1.4198984030 -0.9607177800 -0.4043444581
O 1.5139214491 -0.2278164702 -2.6355738855
C 2.3366124263 0.0323478506 -3.7242062883
C 1.8458888061 0.8920323684 -4.6997307581
C 2.6032262126 1.1157488711 -5.8474033333
C 3.8379244950 0.4916208400 -6.0098350852
C 4.3130225830 -0.3691381296 -5.0208154982
C 3.5636592678 -0.6093151640 -3.8730099154
C -4.5889219832 -0.7226173066 3.2566376350
H -1.9857686329 1.4477946840 4.0241461260
H -2.7300837014 0.1961990270 5.0237947969
H -3.6996715720 1.5674996505 4.4649670333
H -2.6223855178 -1.5623859744 1.6496438380
H -4.5339082545 -0.6501165466 0.5328889609
H -4.8851015685 1.0871453058 0.5005152986
H -3.5814290954 0.4243076627 -0.4985914206
H -1.6039118875 2.1313752426 2.1229431965
H -3.1091373887 2.7465152601 1.4161431377
H -1.9055548501 1.9496846813 0.3916589491
H 1.4717429128 -1.4054946500 2.9701099433
H 3.2305603635 0.0002461305 2.3124367276
H 4.3290290449 1.3970649818 0.5763848179
H 3.5607359968 1.3072803391 -1.7731349397
H 0.6030447245 -1.6133413909 -0.6953942408
H 0.8839804904 1.3725041191 -4.5546797661
H 2.2255112304 1.7856050183 -6.6134746807
H 4.4266774151 0.6714732102 -6.9032545638
H 5.2699165409 -0.8664773457 -5.1447450631
H 3.9224381521 -1.2848582131 -3.1032707476
H -4.8569414218 -1.4037965847 2.4482295735
H -5.4353181329 -0.0491993215 3.4351748549
H -4.4375838758 -1.3190238408 4.1625322621
