47
CONF73
C -3.8526833249 3.1987541977 0.0473404329
C -2.9618152698 2.2052332157 0.7577782539
C -2.5119947248 2.4677798793 2.1771847455
C -1.5276536571 2.6704035858 1.0272026985
C -0.4085871414 1.7288534372 0.8871182918
O -0.2717041037 0.6584007934 1.4391207498
O 0.5022990670 2.2188147328 -0.0117586934
C 1.5797627908 1.3025807101 -0.3267435901
C 2.6233623939 2.1255053479 -0.9386585955
N 3.4668216005 2.7354981931 -1.4384292044
C 1.1287945898 0.2078061009 -1.2736336457
C 0.4052182318 0.5367817601 -2.4195880524
C -0.0215848708 -0.4811422677 -3.2665842441
C 0.2857838164 -1.8090569828 -2.9899512661
C 1.0190240158 -2.1177768026 -1.8465105499
C 1.4392545702 -1.1149594662 -0.9745617277
O 1.2307775336 -3.4547273347 -1.5932195041
C 2.3440818070 -3.8337240010 -0.8524581201
C 3.6206867739 -3.3987239892 -1.1990337956
C 4.7105400834 -3.8657432198 -0.4706034646
C 4.5268930610 -4.7621943210 0.5818133988
C 3.2428206778 -5.1937796850 0.9062353698
C 2.1412286374 -4.7278461368 0.1917038826
C -2.9511442754 3.6420910502 2.9347169601
C -3.2744076588 3.6451335710 4.2281065873
Cl -3.7904573652 5.0926544127 5.0558532118
Cl -3.2312603652 2.2341922787 5.2504472844
C -3.2219954623 0.7686970730 0.3671653278
H -4.8972857504 3.0277004381 0.3300062671
H -3.7669027096 3.0587272721 -1.0351247832
H -3.5968727116 4.2351756247 0.2753094467
H -2.3247436526 1.5689327856 2.7565531541
H -1.3128987815 3.6896857661 0.7246846124
H 1.9814858995 0.8661093297 0.5952107447
H 0.1721177439 1.5730444354 -2.6415384288
H -0.5903285479 -0.2396102760 -4.1585184189
H -0.0374713071 -2.6099635467 -3.6463720345
H 1.9864043792 -1.3612165693 -0.0708070678
H 3.7554595214 -2.7081582192 -2.0253646960
H 5.7094020986 -3.5328889709 -0.7348182107
H 5.3817703499 -5.1244647296 1.1432266850
H 3.0921417019 -5.8930214222 1.7226837757
H 1.1333990054 -5.0494203441 0.4326577640
H -3.0223329065 4.5942129788 2.4175146516
H -2.6058784936 0.0672465049 0.9317791928
H -3.0246739094 0.6275350280 -0.7017086408
H -4.2748527467 0.5308680730 0.5516190410
