38
CONF7
C -2.7104912660 0.0020909497 -3.1131965198
C -2.9560921317 0.4556480474 -1.7153547688
N -1.8831385856 0.8651691346 -1.0131126173
C -2.1372596337 1.2648879996 0.2334217237
N -3.3469356938 1.3064097151 0.8104844632
C -4.3293794751 0.8929454804 0.0146459255
N -4.2029753556 0.4487349429 -1.2491100892
O -5.5806795377 0.8917067857 0.4593678857
C -5.8169880070 1.3554385828 1.8137153116
N -1.0968037012 1.6744439140 1.0411000538
C 0.2810965300 1.7005242893 0.8161557105
O 1.0455517877 1.9909524064 1.7224700446
N 0.6750135050 1.3985271291 -0.4715550586
S 2.3014506528 1.0887070635 -0.8445799315
O 2.2760464458 0.5883013868 -2.2214093446
O 3.0925233577 2.2809046911 -0.5292456353
C 2.8243318820 -0.1889607035 0.2944374038
C 3.9415037341 0.0474123982 1.1278901624
C 4.2324287973 -1.0379765499 1.9104517585
S 3.1448344087 -2.3419616725 1.6432261645
C 2.2630988977 -1.4471548366 0.4440014618
C 1.0974165125 -2.0382391297 -0.2237205067
O 0.4219712119 -1.4692651938 -1.0594445572
O 0.8692486376 -3.2879063265 0.2123941807
C -0.2731837517 -3.9566126229 -0.3821834997
H -3.5844896775 -0.5097563431 -3.5150151371
H -2.4909491273 0.8761836474 -3.7374832012
H -1.8336566394 -0.6496885114 -3.1486100703
H -5.2832258388 0.7241818252 2.5273106387
H -5.4978562269 2.3946366063 1.9180979188
H -6.8934898739 1.2675968301 1.9522455436
H -1.3565948141 1.9391803491 1.9834707860
H -0.0408702549 0.9753983935 -1.0877116147
H 4.4956719603 0.9758449066 1.1447334061
H 5.0295130754 -1.1361093454 2.6361176558
H -0.3071549085 -4.9366443072 0.0905283405
H -1.1846848445 -3.3921601580 -0.1725984908
H -0.1296552771 -4.0504993808 -1.4608658611
