50
CONF4
C 3.7907361968 3.3886234767 3.4303740091
C 4.7647734963 2.6493602645 2.5350958531
O 4.0868227892 1.6455294013 1.7403211601
C 3.4797684692 2.1157205250 0.6121049369
O 3.5155985525 3.2821903230 0.2616637361
N 2.8681177926 1.1059027087 -0.0878775928
C 2.5495829132 -0.1836201358 0.5219220407
C 1.1160008211 -0.1726062146 1.0951065173
C 0.1547536966 0.2149922214 0.0049145993
C -0.8505704332 -0.5824452503 -0.4101860947
C -1.1569537822 -1.8844501394 0.2372757302
C -2.3411392362 -2.0052229010 0.9790476865
C -3.2501390738 -0.8138774261 1.0621352119
C -3.9737869450 -0.5636456345 -0.2659991935
C -3.1366703669 -0.2791387001 -1.4987720410
C -1.7288790381 -0.2479050295 -1.5670721501
N -1.0738880207 0.0284108190 -2.7127715480
C -1.7720775927 0.2895510246 -3.8151911049
C -3.1614685718 0.2820411858 -3.8523664015
C -3.8346572291 -0.0053216045 -2.6771787059
C -2.6587707579 -3.2182005536 1.5859541767
C -1.7982086363 -4.3002328942 1.4457664068
C -0.6265373465 -4.2049942584 0.7071289674
C -0.3175546417 -2.9907669713 0.1026460465
Cl -2.2059874418 -5.8225998150 2.2203373188
C 0.4988705426 1.5458774372 -0.6017625085
C 1.9390661831 1.4979461544 -1.1483423899
H 3.0773837954 3.9585357114 2.8305078484
H 4.3364475958 4.0875300312 4.0726260407
H 3.2454102102 2.6882641198 4.0699923273
H 5.4906074174 2.0785289518 3.1204777947
H 5.2931432773 3.3363339184 1.8683169286
H 2.6176353105 -0.9515483412 -0.2602827571
H 3.2795148714 -0.4170821271 1.2959947102
H 0.8799015214 -1.1488407858 1.5247607992
H 1.0830753354 0.5718309737 1.9033714178
H -2.6664494786 0.0729094945 1.3371493233
H -4.0037155878 -0.9659951301 1.8412946366
H -4.6016440119 -1.4381569287 -0.4856512639
H -4.6654870961 0.2784581773 -0.1321073382
H -1.1923570526 0.5068502081 -4.7111072574
H -3.6954525186 0.4924207336 -4.7726452197
H -4.9220615954 -0.0167326997 -2.6602070586
H -3.5669072710 -3.3199861022 2.1708220536
H 0.0272398686 -5.0628456321 0.6035577927
H 0.5878463963 -2.8988506978 -0.4897165227
H -0.1873868851 1.8313000185 -1.3985900650
H 0.4678777761 2.3176969142 0.1805905224
H 1.9938871563 0.7569741233 -1.9547570854
H 2.2446897100 2.4712862722 -1.5336711801
