22
CONF5
C 2.3637321775 -0.6206419274 0.2761803839
C 1.0430121497 0.0899196791 0.5542269652
C 0.0889678113 -0.0057709396 -0.6346284222
C -1.3032793038 0.5779184145 -0.3437315709
C -2.1288731653 -0.2514383127 0.6226185386
O -2.3376949269 -1.5390554797 0.0218017948
O -2.0068374596 0.7379082592 -1.5893774038
O 0.6940609936 0.7311352109 -1.7077569389
O 1.2928004990 1.4576242325 0.9117316691
O 3.2351784156 -0.5447307520 1.4086335809
H 2.8416297309 -0.1834133065 -0.6127620121
H 2.1801837840 -1.6834586631 0.0865904233
H 0.5819703225 -0.3719151070 1.4344442544
H -0.0171986302 -1.0649483680 -0.9176483246
H -1.1850529741 1.5866804496 0.0673884864
H -1.6130303658 -0.3438599888 1.5882574276
H -3.0862918434 0.2584001136 0.7897268379
H -3.0810937489 -1.9603072457 0.4686153141
H -2.3266324561 -0.1428416958 -1.8378192499
H -0.0316127854 0.9607853063 -2.3088570171
H 1.4988327538 1.9190313482 0.0842574629
H 3.2972298260 0.3929789787 1.6381078109
