40
CONF42
C 5.2823802063 -0.0610912999 1.6909031921
C 4.1202110594 -0.4754967357 0.8215735735
O 3.1066475231 0.5735407863 0.9246190660
P 1.7834784580 0.4958501462 0.0324736482
S 1.9948210814 0.1888124882 -1.8667986350
O 1.0558130235 1.8146825797 0.5428478196
C 0.4059258919 2.7603199377 -0.3640775201
C 1.3687800867 3.8562867037 -0.7560755516
O 1.0319691560 -0.7261575624 0.8631015719
C -0.2190518019 -1.1749790228 0.5523829657
C -0.5964562192 -2.4126288088 1.0652326894
C -1.8784106006 -2.8369917395 0.7482767664
N -2.6957471463 -2.0906463352 -0.0236793735
C -2.2261304466 -0.9223421624 -0.4610915416
N -1.0061022339 -0.4206009601 -0.1908787831
C -3.1236101673 -0.0798461497 -1.3338742811
C -3.4699541301 1.2393271970 -0.6321790638
C -2.4664274847 0.1741156532 -2.6959562296
C -2.4222517897 -4.1433674203 1.2334341844
H 4.9711415207 0.0462777130 2.7332911976
H 5.7024858223 0.8877108665 1.3470082326
H 6.0623842074 -0.8264272634 1.6374544889
H 3.6774829019 -1.4189964681 1.1598852399
H 4.4119239728 -0.5725071952 -0.2295594017
H 0.0273804545 2.2145314268 -1.2329186304
H -0.4396117166 3.1446228299 0.2114107890
H 2.2064488137 3.4475900173 -1.3280812719
H 1.7563760236 4.3687482442 0.1286317901
H 0.8469597835 4.5875579322 -1.3818903056
H 0.0811607082 -3.0003515643 1.6719061844
H -4.0418680469 -0.6575507924 -1.4793043776
H -3.9471136161 1.0610821561 0.3365381777
H -4.1564361330 1.8240027877 -1.2524577308
H -2.5645091045 1.8307618221 -0.4674818141
H -3.1429781414 0.7493531629 -3.3357301657
H -1.5369828872 0.7388505493 -2.5746914979
H -2.2284520695 -0.7661994476 -3.2027023291
H -1.6950220550 -4.6808591151 1.8445786656
H -3.3295583978 -3.9708822340 1.8209278871
H -2.7070976974 -4.7661027127 0.3796553938
