50
CONF58
C 4.8381703492 -0.8775083445 3.0135542829
C 4.1372064922 0.1305214232 2.0838548963
C 5.1570955649 0.6168424502 1.0475749539
C 3.6665077177 1.3464128240 2.9047097322
C 2.9227266321 -0.5364775277 1.4339282842
C 2.7726522871 -0.6561015490 0.0509687426
C 1.6503760406 -1.2567176787 -0.5168544016
C 0.6561260209 -1.7386763505 0.3179580035
C 0.7705150040 -1.6487815118 1.6978668250
C 1.9003222874 -1.0538140189 2.2415996974
O -0.5015962555 -2.3381442600 -0.2011189748
P -1.4531619307 -1.4134946727 -1.1120318963
O -0.9691399252 -1.0332566993 -2.4510026665
O -1.8261552654 -0.1741577866 -0.1435450999
C -1.4646843511 1.1415736309 -0.4628412464
C -0.4241311061 1.7268291629 0.2435133032
C -0.0992897447 3.0530050773 -0.0251322472
C -0.8057261608 3.7701037463 -0.9868138280
C -1.8443984870 3.1590974219 -1.6843335481
C -2.1830939345 1.8351433983 -1.4249584943
O -2.7619486064 -2.3407531795 -1.0218375433
C -3.9268085157 -1.8840256018 -1.6582547896
C -4.9793731700 -1.4667684903 -0.8560603443
C -6.1602336642 -1.0515518335 -1.4635719274
C -6.2736041700 -1.0515630152 -2.8512150682
C -5.2023779053 -1.4704215154 -3.6357414366
C -4.0158667781 -1.8933678459 -3.0437635316
H 5.1718309326 -1.7543342452 2.4496707268
H 4.1756739084 -1.2231779542 3.8121236939
H 5.7136520446 -0.4142490458 3.4814393128
H 6.0036095812 1.0822761464 1.5615807925
H 5.5476403427 -0.2104446792 0.4462585924
H 4.7254017644 1.3643786132 0.3742147370
H 3.1645702424 2.0749395345 2.2592591923
H 4.5232958077 1.8383840353 3.3778983851
H 2.9668290061 1.0567144751 3.6938473311
H 3.5353162715 -0.2754852115 -0.6171504087
H 1.5377435622 -1.3309509899 -1.5925664780
H -0.0262527475 -2.0318823128 2.3257644158
H 1.9763566846 -0.9863148838 3.3219429068
H 0.1188375228 1.1446574821 0.9811948078
H 0.7121715695 3.5244247219 0.5198155860
H -0.5465580556 4.8030118199 -1.1937192286
H -2.3951766604 3.7129772136 -2.4374755032
H -2.9833244787 1.3364448530 -1.9617765140
H -4.8619401064 -1.4706868843 0.2216196512
H -6.9918670995 -0.7247859880 -0.8479825440
H -7.1957612288 -0.7257933731 -3.3205760135
H -5.2867332703 -1.4710380753 -4.7175129050
H -3.1654256062 -2.2130128179 -3.6343234994
