45
CONF4
C 1.9186653018 2.6323280490 -1.5639383376
O 2.7654328591 2.6214298062 -0.3888763687
C 2.8425158081 1.4864739028 0.3127426028
C 3.6791863196 1.4619565594 1.4210890719
C 3.7273840980 0.2513561629 2.1093619368
O 4.5292942949 0.1885365727 3.1792613182
C 4.5912789431 -1.0633610267 3.9018632606
N 3.0211723350 -0.8263579852 1.7530191266
C 2.2514573812 -0.6716048490 0.6738428061
N 1.5178747696 -1.8042528772 0.3295204057
C 0.5780747695 -2.0198636338 -0.6665617182
O -0.0128803986 -3.0882149786 -0.7524753210
N 0.3722728942 -0.9632694611 -1.5339416163
S -0.9464869322 -0.9604112409 -2.5936744570
O -1.0402743344 0.4279662183 -3.0498599623
O -0.7857995525 -2.0413784212 -3.5641507871
C -2.3562459630 -1.3194037641 -1.5736723883
C -2.9600354681 -0.5008719703 -0.6137703778
C -4.0855963981 -1.2367381051 -0.2083346334
N -4.1664269888 -2.4016137717 -0.8530441952
N -3.1141809200 -2.4464712701 -1.6792054999
C -2.9214681528 -3.6314591671 -2.5144914001
C -2.5506948728 0.7773569613 -0.0809684128
N -3.4010528924 1.6082623976 0.5381373409
N -2.5990503618 2.5971437095 0.8970027364
C -3.0638265383 3.7799474555 1.6094264949
N -1.3351355966 2.4213343002 0.5389628996
N -1.2838960884 1.2669990632 -0.0826259104
N 2.1241196050 0.4237664828 -0.0746994102
H 0.8789265260 2.4370705634 -1.2893462539
H 2.2628489611 1.8902383279 -2.2895385408
H 2.0208740647 3.6370897325 -1.9721462608
H 4.2594439702 2.3225084658 1.7249210130
H 4.9570532028 -1.8629474875 3.2531406693
H 3.6075270870 -1.3267542598 4.2978044999
H 5.2930893172 -0.8812066617 4.7150718732
H 1.6524629502 -2.6018152352 0.9371664004
H 0.7603340560 -0.0478310988 -1.2562452163
H -4.8233368527 -0.9654580801 0.5340231732
H -1.9213087609 -4.0348369665 -2.3533131431
H -3.6782938967 -4.3517548716 -2.2064180608
H -3.0501468529 -3.3775300721 -3.5682640233
H -3.7900228747 4.3106829024 0.9898935861
H -3.5286279076 3.4727111813 2.5484594112
H -2.1965011906 4.4102488325 1.8022162551
