53
CONF62
C 0.2114137329 -3.5531366234 1.0253793031
N 1.5797614915 -3.1366727142 1.3550308047
C 2.5134965647 -3.8829053075 0.4921218413
C 3.9655023842 -3.5698792072 0.8236389045
C 4.2237678855 -2.0751246736 0.6721442542
C 3.2126736948 -1.2895846178 1.5019397092
C 1.7697468498 -1.6798318854 1.1660936462
C 0.7732819167 -0.8859005028 2.0187085429
C 0.9135027746 0.6368028100 1.9021863730
N 1.0544827902 1.0889860137 0.5111354233
C 1.8942812741 2.1793801416 0.2197413326
C 2.2019773853 3.1575013695 1.1723487183
C 3.0721828136 4.1986193351 0.8574659091
C 3.6160435179 4.3077496429 -0.4182753157
C 3.2847529433 3.3640119681 -1.3882473870
C 2.4482206712 2.3011784840 -1.0642819293
S 2.1307853488 1.0210637823 -2.2626721550
C 0.4629419222 0.6309006909 -1.8022218268
C 0.1068560899 0.6996346498 -0.4413870239
C -1.1926973730 0.3365483017 -0.0780192277
C -2.0624828842 -0.1477804951 -1.0488845752
C -1.7133898607 -0.2327987439 -2.3907448163
C -0.4420050163 0.1920824296 -2.7643934375
S -3.6936414891 -0.6905569445 -0.5273564043
O -4.2069624911 -1.6445872417 -1.5363751930
O -3.6008284538 -1.1239052922 0.8863828352
C -4.7082485480 0.7993956098 -0.5924754845
H -0.5044959567 -3.2091786047 1.7758785683
H 0.1673469153 -4.6464054512 1.0079112317
H -0.1176869729 -3.1815517260 0.0343116619
H 2.3173240505 -4.9525173123 0.6297420271
H 2.3249323799 -3.6500536387 -0.5774874421
H 4.6198739874 -4.1516196784 0.1642436451
H 4.1748107064 -3.8818335912 1.8552928962
H 5.2461727910 -1.8196121203 0.9727208368
H 4.1168230129 -1.7936550289 -0.3851176651
H 3.3442320424 -0.2172330520 1.3227755837
H 3.3836371455 -1.4698133990 2.5725379760
H 1.5910427798 -1.4342180900 0.0972123199
H 0.9201220670 -1.1421950927 3.0757874587
H -0.2470354171 -1.1781754289 1.7678234741
H 1.8196816462 0.9566268112 2.4201815926
H 0.0693746071 1.1264932113 2.4109278215
H 3.3099851087 4.9367694017 1.6166725197
H 3.6935875104 3.4367452253 -2.3913199129
H -1.5194661229 0.4091332029 0.9515429152
H -2.4079595607 -0.6226353241 -3.1254196563
H -0.1384937485 0.1491817550 -3.8054551625
H -5.7124135541 0.5034943569 -0.2761008412
H -4.2827709841 1.5365117846 0.0919617176
H -4.7133315310 1.1672039949 -1.6207573894
H 1.7604992013 3.1100923114 2.1611129790
H 4.2872656184 5.1231558835 -0.6653536023
