24
CONF19
C -1.8443379737 -1.4969123917 1.9117304228
O -1.3477212217 -0.8649605661 0.6960659827
P -1.6454653396 0.6673654610 0.3467544448
S -3.1129230011 1.5334511665 1.2623437785
O -1.6440956913 0.6464500443 -1.2507042766
C -2.7327700101 -0.0204732973 -1.9544027023
O -0.2412525838 1.4576926927 0.6106328272
C 0.9791691234 0.9138458160 0.2465386573
C 1.4223303914 1.0134233103 -1.0644815519
C 2.6732794553 0.5183094065 -1.4113917540
C 3.4843461293 -0.0748313045 -0.4409109957
C 3.0457540696 -0.1633346046 0.8753468396
C 1.7949022206 0.3308918928 1.2175116910
Cl 1.2552962584 0.2342899599 2.8692834345
Cl 5.0556683592 -0.7067951858 -0.8423462024
Cl 3.2008321038 0.6572252303 -3.0641168078
H -1.3989351400 -2.4914096931 1.9192811607
H -2.9331395260 -1.5647001576 1.8700681708
H -1.5289208387 -0.9345958170 2.7924273856
H -2.5025735675 0.0843664292 -3.0138527252
H -2.7668520354 -1.0768579309 -1.6759866350
H -3.6809431784 0.4709089097 -1.7212088442
H 0.7900811568 1.4827815843 -1.8079194289
H 3.6782711306 -0.6161308595 1.6293370177
