43
CONF13
C 0.4531857330 1.8116630575 1.3766355183
O 1.8004099645 1.2153155581 1.3889641262
C 1.7326019086 0.0624340873 0.6551375161
C 2.8221825974 -0.6810365423 0.2005320352
O 4.0634564995 -0.2876000220 0.6110095913
C 5.1791267363 -1.0275172807 0.1027412272
C 2.5385713289 -1.7395864272 -0.6755713291
C 1.2333241403 -1.9967475695 -1.1114960267
C 0.1520183943 -1.2465051168 -0.6370017737
C 0.4450137247 -0.2802365502 0.3086432149
C -0.5189726152 0.6970286807 0.9156540854
C -1.3024282428 0.0972851558 2.0948897201
C -2.1782700237 -1.0678421710 1.6532723589
N -3.0213863745 -0.6793073804 0.5191004263
C -3.9671440769 -1.7384648849 0.1804985102
C -2.2194892559 -0.2284698487 -0.6360041594
C -1.2422138212 -1.2967319458 -1.2124757562
C -1.5032221932 1.0740444047 -0.2150259997
C -0.7562882524 1.7697527524 -1.3171966579
C 0.1756448348 2.6699663274 -0.9975812229
C 0.3950604076 3.0352468906 0.4490037287
O 1.5645344661 3.8230237235 0.6702331992
H 0.2692640634 2.1316209852 2.4057570889
H 6.0650108638 -0.5632283201 0.5370078428
H 5.1269804025 -2.0792544989 0.4091620793
H 5.2281148689 -0.9644581072 -0.9910930217
H 3.3484975455 -2.3430072356 -1.0684690334
H 1.0733536271 -2.7736990159 -1.8543214500
H -1.9291175447 0.8880060543 2.5274462048
H -0.6020753675 -0.2383667325 2.8686668626
H -2.8329241502 -1.3690738798 2.4797208504
H -1.5451464687 -1.9450117296 1.4136689693
H -4.5726368231 -1.4332498639 -0.6797819005
H -4.6375776434 -1.9065246536 1.0306814317
H -3.4899572931 -2.7064660916 -0.0601646291
H -2.9366195991 0.0217796418 -1.4281291150
H -1.1618208960 -1.1452418033 -2.2963366756
H -1.6856840238 -2.2921579721 -1.0902406103
H -2.2754929733 1.7464581662 0.1894325887
H -0.9704130528 1.5169795595 -2.3535601138
H 0.7530803734 3.2032873845 -1.7489696465
H -0.4976011267 3.5909523313 0.7921356450
H 1.4270492585 4.6749401686 0.2379476828
