65
CONF621
C -4.8243403872 2.7234941365 -1.2063687588
C -3.5082646591 3.4970657678 -1.1629650637
C -2.3006548433 2.6428895358 -1.5640410373
C -0.9994105972 3.4605169052 -1.5665153175
C -2.1280461254 1.4896935278 -0.5991779138
O -2.1228803447 1.6038081002 0.6128911714
O -1.9342712071 0.3224202560 -1.2431943176
C -1.6794717095 -0.8625552340 -0.4237364990
C -2.9962731281 -1.5355736385 -0.0764287040
C -2.7499047535 -2.7490916386 0.8330863204
C -1.5789008582 -3.5524027808 0.3500376384
C -0.6880881482 -3.1377970647 -0.5713251383
C -0.7877976281 -1.7801921353 -1.2430216544
C 0.6216674121 -1.2047082207 -1.5000475734
C 1.3684337900 -2.1738676098 -2.4394848839
C 1.3624367896 -3.5612044568 -1.8572169556
C 0.4244987663 -3.9771356983 -0.9891059649
C 2.7798806666 -1.7060955668 -2.8048808669
C 1.3746731450 -0.9250097856 -0.1785705203
C 1.5364407329 0.5735621386 0.0844796488
C 2.1013062701 0.8683874865 1.4593228993
C 3.5076153301 0.3236010065 1.6914963402
C 4.2447556487 1.0643360792 2.8228287731
C 3.2585159542 1.8825936008 3.6527688290
C 2.5599713600 2.8559277523 2.7415274493
O 2.4390019359 4.0470269214 2.9466267796
O 2.0826467019 2.3347273965 1.5925860228
O 5.1844147076 2.0234126810 2.3061674787
C -2.5640374678 -2.3454830059 2.3071384984
H -5.6673621307 3.3672360624 -0.9383389333
H -5.0095615595 2.3237196011 -2.2092973690
H -4.8132366614 1.8814842148 -0.5048298189
H -3.5547028968 4.3524265196 -1.8472401533
H -3.3364634622 3.9000350196 -0.1578687835
H -2.4657372725 2.2278001447 -2.5642606371
H -0.1435830254 2.8465570978 -1.8641915364
H -1.0901340000 4.2917449301 -2.2717843985
H -0.8040321285 3.8693522832 -0.5699612149
H -1.1679365247 -0.5380229734 0.4868107924
H -3.6636388557 -0.8215757639 0.4177632821
H -3.4755994351 -1.8579709431 -1.0088527174
H -3.6410672445 -3.3910641981 0.7877645325
H -1.4453607792 -4.5375048711 0.7975280846
H -1.2685671183 -1.9227000911 -2.2237185463
H 0.5007244722 -0.2569704594 -2.0399713676
H 0.7931413551 -2.2002209019 -3.3796566394
H 2.1592997870 -4.2400505072 -2.1563262746
H 0.4704257070 -4.9819108660 -0.5730172855
H 3.4517998376 -1.7140750733 -1.9409443454
H 3.2119284306 -2.3655085379 -3.5645841402
H 2.7550781683 -0.6886894907 -3.2090837693
H 0.8409857520 -1.3858618435 0.6635453424
H 2.3595365530 -1.4002652486 -0.1958668600
H 2.1934684101 1.0172993045 -0.6752871537
H 0.5648806110 1.0751203337 0.0033524208
H 1.4179371152 0.4784935964 2.2254825974
H 4.0937714002 0.4004108733 0.7683657459
H 3.4205052971 -0.7395486709 1.9365797402
H 4.7657339647 0.3511601828 3.4735056789
H 3.7643765028 2.4378249394 4.4437448282
H 2.5219515100 1.2113876483 4.1107598587
H 5.8298098384 1.5454625566 1.7699979673
H -1.7050812085 -1.6765402804 2.4261535439
H -2.3894770625 -3.2281900825 2.9305823276
H -3.4577316424 -1.8331919774 2.6782683415
