16
CONF3
C -0.1067561943 -3.6659670391 0.3886561160
O -0.0642713969 -2.5725478150 1.3454758243
C -0.2518430366 -1.3476166071 0.7984915252
C -1.5369579527 -0.7994123539 0.7078633888
C -1.7327561768 0.4847570911 0.1931041621
C -0.6306044995 1.2345001199 -0.2412484037
C 0.6619631511 0.7005954379 -0.1436292854
C 0.8424035063 -0.5848863049 0.3735840774
Br 2.5635980228 -1.3537255615 0.5656973778
Br 2.1630707429 1.7076887239 -0.7084745166
Br -0.8864589076 2.9752971704 -0.9449235789
Br -3.4833010750 1.1998030954 0.0868003738
Br -2.9778981367 -1.8529865729 1.3436014837
H 0.0543448844 -4.5724151202 0.9719934742
H -1.0846171622 -3.7011987770 -0.1009848187
H 0.6876324968 -3.5492573537 -0.3548030591
