47
CONF40
C -7.1023131139 1.6563811931 -1.3148254397
O -7.1721822493 0.6978851878 -0.2358407010
P -5.9983271789 0.6491460266 0.8578334044
S -5.3541857820 2.3345525026 1.5459714133
O -6.5977058569 -0.4048215161 1.9080135074
C -7.4469052352 0.0568917989 2.9832215543
O -4.9290949767 -0.2908547385 0.0783460001
C -3.6790114008 -0.5641824671 0.6428916807
C -3.5317841349 -1.6837302605 1.4486746063
C -2.2721818168 -1.9989525797 1.9450267977
C -1.1768731598 -1.1817679195 1.6542750900
C -1.3480353000 -0.0499173836 0.8535017804
C -2.6001527779 0.2540526316 0.3365552577
S 0.3902791404 -1.6009037224 2.4035448277
C 1.5676533385 -1.0259915346 1.1895235936
C 2.6085713166 -0.1939056457 1.6011181652
C 3.5808965342 0.2185725227 0.6955008675
C 3.4904349473 -0.1972122272 -0.6255143437
C 2.4557329046 -1.0217639976 -1.0532559650
C 1.4996067357 -1.4443431132 -0.1423568988
O 4.3909947319 0.2343171252 -1.5931418293
P 6.0033773823 0.1540559953 -1.4109663997
S 6.7095868135 -1.4180169763 -0.5451941721
O 6.2855858484 1.5805719962 -0.7305112702
C 7.6304246540 1.9016618998 -0.3044359717
O 6.4692807006 0.4473814381 -2.9189736489
C 6.5271627901 -0.6380474444 -3.8713664845
H -6.2667544742 1.4165952207 -1.9801261069
H -6.9869484365 2.6688292253 -0.9166790892
H -8.0449619793 1.5646212554 -1.8553201168
H -8.3939334662 0.4315017833 2.5826922479
H -7.6275073415 -0.8149935226 3.6127174396
H -6.9430378607 0.8422723165 3.5536069764
H -4.3927977788 -2.3063297960 1.6633199538
H -2.1382984946 -2.8873228982 2.5536162628
H -0.5038916180 0.5944914307 0.6343518868
H -2.7518484632 1.1312919829 -0.2816136369
H 2.6538456531 0.1414836231 2.6316180064
H 4.3877210700 0.8715835143 1.0076799097
H 2.4201786410 -1.3357185238 -2.0904267477
H 0.6968693839 -2.1000436371 -0.4622690791
H 7.5597556430 2.8672420068 0.1970649307
H 8.0017464713 1.1386553580 0.3861385357
H 8.2928688867 1.9789916118 -1.1719619457
H 5.5190328735 -1.0078585987 -4.0839731048
H 6.9666152035 -0.2166364286 -4.7759395989
H 7.1505101418 -1.4497145458 -3.4850661227
