46
CONF98
C -2.3887815273 -1.9949691788 -0.3200020404
C -3.4250473753 -1.5445980765 0.6826207027
C -3.4220163524 -2.0877872508 2.0911700050
C -3.0452652726 -0.6139590046 1.8316226406
C -1.6675513636 -0.1227751641 2.0085259631
O -0.6370222251 -0.7604635066 1.9032528547
O -1.6895815141 1.2015502431 2.3108120077
C -0.3912420645 1.8434326402 2.4101195495
C 0.2371796455 2.0444041997 1.0565439014
C 1.6072329789 1.8475218959 0.8962369375
C 2.1935151821 2.0653727410 -0.3463158158
C 1.4337829258 2.4712740689 -1.4407689502
C 0.0644550774 2.6533737142 -1.2726065464
C -0.5363630224 2.4476183883 -0.0339849601
O 3.5670866165 1.9189675087 -0.4205391608
C 4.1177082697 1.3562821822 -1.5611991240
C 5.3053732531 1.9092131765 -2.0288188960
C 5.9372207418 1.3312301298 -3.1269884354
C 5.3835613348 0.2174541016 -3.7545410577
C 4.1941202377 -0.3254915092 -3.2707121021
C 3.5550539743 0.2358848680 -2.1693237257
C -2.4299868034 -3.0615109532 2.5476802206
C -2.6503434747 -3.9980464375 3.4707656929
Cl -1.4215220105 -5.1469244577 3.9397129440
Cl -4.1582551505 -4.2103214164 4.3219014054
C -4.7842862290 -1.2826614464 0.0706742569
H -2.3076633459 -1.2527099430 -1.1214393134
H -1.3995827130 -2.1306997170 0.1153045228
H -2.7091053111 -2.9417666980 -0.7679183807
H -4.4025520754 -2.1833041125 2.5466349790
H -3.8065706190 0.1036108957 2.1173945350
H 0.2620640759 1.2595908143 3.0636082769
H -0.6116831759 2.8038399009 2.8841481751
H 2.2248377764 1.5150132515 1.7250280333
H 1.9046119203 2.6384968101 -2.4033852580
H -0.5369073370 2.9718610221 -2.1183747712
H -1.6047163093 2.5953719289 0.0853259930
H 5.7207527361 2.7791820188 -1.5309735220
H 6.8637911108 1.7606037065 -3.4950626280
H 5.8765314905 -0.2269126947 -4.6127840165
H 3.7610285796 -1.1993177676 -3.7475286934
H 2.6338785452 -0.1892661038 -1.7846529277
H -1.4374046156 -3.0379117636 2.1136918573
H -4.7128043371 -0.4952415817 -0.6875707889
H -5.5124909536 -0.9727552423 0.8251320753
H -5.1550399976 -2.1917561861 -0.4153928236
