47
CONF46
C -4.4256492337 -1.0160215093 1.3299032242
C -3.3952617139 -0.0478235343 0.7901403367
C -1.9623164368 -0.1390865313 1.2540082692
C -2.3502255897 -0.6659446878 -0.1393403906
C -1.8297233369 -0.0496482501 -1.3681803840
O -1.7284958039 -0.6227526511 -2.4332052653
O -1.4423111183 1.2494326866 -1.1953378243
C -0.8159916551 1.8532728607 -2.3507387736
C -0.8757490340 3.2961448535 -2.1117683068
N -0.8916180897 4.4395637342 -1.9528284684
C 0.6130579496 1.3788985611 -2.5098131597
C 1.4304825852 1.2930958725 -1.3848646313
C 2.7252237545 0.8122750984 -1.5135781262
C 3.1932571654 0.4494964824 -2.7752726495
C 2.3996445152 0.5545983990 -3.9037935203
C 1.0945653381 1.0146753259 -3.7649435047
F 4.4493507076 -0.0229367735 -2.8859560108
O 3.5783331865 0.7377371851 -0.4373110882
C 3.3618947029 -0.2582779937 0.5057239752
C 4.1650046300 -0.1900832949 1.6419185055
C 4.0348261736 -1.1655978984 2.6231685582
C 3.1085109051 -2.1977132121 2.4780803234
C 2.3115231549 -2.2461455513 1.3388320115
C 2.4314780048 -1.2806938742 0.3402233442
C -1.5206106935 -1.0968266800 2.2688771481
C -0.5392698439 -0.8869648274 3.1477266946
Cl 0.4149852875 0.5674449903 3.2188022145
Cl -0.1089936912 -2.0695336518 4.3553443585
C -3.9591805035 1.3290235087 0.5191119291
H -4.7771162586 -0.6769455997 2.3104986862
H -4.0401240391 -2.0322782802 1.4317795608
H -5.2858702543 -1.0491071835 0.6535236346
H -1.4256015279 0.8031560711 1.2295850801
H -2.4226292326 -1.7437077888 -0.2424887838
H -1.3925768558 1.6268709334 -3.2551292560
H 1.0672038094 1.5713390800 -0.3997898071
H 2.7980014457 0.2586096034 -4.8679943072
H 0.4502597176 1.0774613713 -4.6357875631
H 4.8807723893 0.6193327188 1.7398338010
H 4.6611037246 -1.1147722439 3.5083788148
H 3.0070890584 -2.9538308144 3.2488194505
H 1.5841655390 -3.0427896694 1.2159887458
H 1.8097821018 -1.3315972176 -0.5466563726
H -2.0255210586 -2.0557540535 2.3310341181
H -4.4465974374 1.6963458556 1.4283908194
H -4.7152313508 1.2799263856 -0.2723140139
H -3.1938507860 2.0481322847 0.2270286947
