82
CONF40
C -3.8796025706 3.5825488945 -0.4098221014
C -4.1121258895 2.4859835771 -1.4120557006
C -4.2257269334 2.7499798452 -2.7161961836
C -4.2719920822 1.0817009988 -0.8803598839
C -5.6473751474 0.9176537171 -0.1354281722
C -5.3425696463 0.2620088107 1.2305553560
C -3.9942002543 -0.4391305751 1.0151107711
C -3.2451652348 0.6231775262 0.1806957725
C -1.8545195946 0.1560554872 -0.2529830474
C -1.1179762408 1.1372685496 -1.1632872102
C 0.2118623063 0.5567590144 -1.6485962741
C 1.1119435144 0.1338080524 -0.4809109982
C 2.5892748808 -0.2148052314 -0.9010692899
C 3.1944788428 1.0402635801 -1.5746579731
C 4.7121336332 0.9770862134 -1.7262719541
C 5.4025895067 0.7539257181 -0.3955686792
C 4.9323457403 -0.5392965162 0.3194080139
C 3.3769249119 -0.4604531697 0.4231230296
C 2.7365582095 -1.5943094300 1.2265166838
C 1.3123950815 -1.2223770658 1.6403835097
C 0.3840125650 -0.8897334519 0.4548047998
C -0.9736969213 -0.2262468407 0.9865547557
C -1.7579682598 -1.2009628742 1.9063261328
C -3.1744841696 -0.7293900121 2.2723311643
C -0.6805844195 1.0296239404 1.8428137205
C 0.0877504001 -2.2138502782 -0.2783418448
C 5.4620133323 -1.7927910105 -0.3889535599
C 5.5266982960 -0.5241643396 1.7407663476
O 6.8108035689 0.7691153911 -0.6643169021
C 2.6723790811 -1.3755185975 -1.9166466354
C -4.2399293924 -1.7323329363 0.2226746947
O -4.9680159092 -2.6347149759 1.0693628202
H -4.0273998374 4.5667088023 -0.8601647975
H -4.5520273828 3.4893927852 0.4511454409
H -2.8570135558 3.5411632396 -0.0160786790
H -4.1643906277 3.7644923610 -3.0983750526
H -4.3792507235 1.9552802713 -3.4408581255
H -4.2394079453 0.3995874940 -1.7390016768
H -6.1479480987 1.8828998445 -0.0180537690
H -6.3194656990 0.2977264092 -0.7359269286
H -5.2255245381 1.0296839115 2.0056410297
H -6.1271626517 -0.4249327531 1.5581390798
H -3.1257647096 1.4742641892 0.8627443992
H -2.0012306253 -0.7575102456 -0.8427305087
H -1.7457010787 1.3865365896 -2.0245611844
H -0.9371015827 2.0821313712 -0.6332602728
H 0.7193815872 1.3059341087 -2.2630065448
H 0.0046407416 -0.2925504670 -2.3110452158
H 1.2500900774 1.0355211067 0.1284485025
H 2.9338773922 1.9265359221 -0.9774228565
H 2.7506536718 1.1872691187 -2.5649046494
H 5.0147558425 0.1868269813 -2.4228005415
H 5.0818929607 1.9152454442 -2.1544428063
H 5.1457902734 1.5996028401 0.2693778895
H 3.1977501402 0.4572240181 1.0120212940
H 3.3106881781 -1.7916629912 2.1366303587
H 2.7465282815 -2.5308620390 0.6576666756
H 1.3845537086 -0.3536735571 2.3040949472
H 0.8752500971 -2.0374489670 2.2293479487
H -1.8473928925 -2.1835366360 1.4377196506
H -1.1886283472 -1.3578521274 2.8292881141
H -3.6647436521 -1.4942756719 2.8830254341
H -3.1305796713 0.1843731191 2.8783851111
H -1.5868424244 1.6134624783 2.0130945863
H 0.0472826554 1.7081571095 1.3969500502
H -0.3082151061 0.7473845005 2.8310846715
H -0.4407679711 -2.9136865089 0.3726036811
H 1.0110100971 -2.7080935129 -0.5735390139
H -0.5052958230 -2.0874869335 -1.1857603640
H 5.0516974638 -2.6960788403 0.0738148121
H 5.2223416349 -1.8187029226 -1.4518172179
H 6.5511138816 -1.8349249030 -0.3011202116
H 5.3494323305 -1.4649231330 2.2681377354
H 5.1077587997 0.2910530417 2.3422585938
H 6.6154042378 -0.4021778914 1.7056705768
H 7.2806593123 0.8139301486 0.1746227340
H 1.7644348026 -1.4302897737 -2.5222389011
H 3.5024111676 -1.2322918097 -2.6120320012
H 2.8189839770 -2.3516924422 -1.4513200302
H -4.8192845995 -1.5139398510 -0.6858233454
H -3.2937764795 -2.1936303966 -0.0893233660
H -5.1417008972 -3.4370447432 0.5677337877
