48
CONF40
C -4.0170004323 -1.6876507201 -2.1480296290
C -3.8915823048 -0.6825428990 -1.0123946042
C -2.4240283428 -0.3353615875 -0.7678630805
N -2.3056631791 0.6525256041 0.3100105039
C -3.0943674719 1.8704466644 0.0170572326
C -4.5457709545 1.4997847704 -0.2285217585
N -4.6199949960 0.5495022617 -1.3436255191
C -1.0612443011 0.8199378127 0.8904688308
C -0.9217441190 1.5120270564 2.1241357986
C 0.2764865385 1.6863309273 2.7528917793
C 1.4476939119 1.1388262108 2.2006145888
C 1.3349489070 0.4069139981 1.0014936629
C 0.1060296813 0.2698218633 0.3532741966
N 2.4924704695 -0.1534542749 0.4486278824
C 3.6940230528 0.0165404972 1.0367312555
C 3.8631479374 0.7239791532 2.1994757440
C 2.7272350970 1.3226522314 2.8549949551
O 2.8367994256 1.9739652556 3.9304991318
C 5.2348644342 0.8416674911 2.7541824882
O 6.2184683215 0.3499143129 2.2241874269
O 5.3249116548 1.5333848900 3.8922299076
C 2.4228838611 -0.9228739218 -0.7589045483
C 1.8979919610 -2.2125332968 -0.7303043939
C 1.8187799376 -2.9961551433 -1.8666233598
C 2.2972188672 -2.4420358636 -3.0442449233
C 2.8329564501 -1.1664154199 -3.1237845448
C 2.8866525798 -0.4044491858 -1.9629431610
F 2.2370923110 -3.1903147711 -4.1640693600
F 1.4507173146 -2.7052340790 0.4373563468
F -2.0384972920 1.9755124433 2.7332409713
H -3.5961384859 -1.2777364781 -3.0721139994
H -3.4902667248 -2.6149263035 -1.9027955456
H -5.0689383754 -1.9319624020 -2.3271659309
H -4.2801951242 -1.1366439246 -0.0800120548
H -1.8936852126 -1.2464085149 -0.4718537912
H -1.9799700604 0.0408455111 -1.7072272983
H -2.6798776828 2.3554882886 -0.8826069643
H -3.0255647020 2.5714976974 0.8480154347
H -4.9720782331 1.0910974894 0.7061796793
H -5.1018701414 2.4071746658 -0.4879922505
H -5.5929637256 0.3146176331 -1.5164513220
H 0.3254982979 2.2171729832 3.6968728541
H 0.0629466386 -0.2449130142 -0.5966363831
H 4.5383159510 -0.4494142074 0.5400509020
H 4.3817377208 1.8373410143 4.1284104908
H 1.4096752274 -3.9989338946 -1.8316359811
H 3.1924727092 -0.7817205064 -4.0706903043
H 3.2894213171 0.6027114856 -1.9825121819
