53
CONF6
C 0.6192297872 -0.5541258060 -0.1588137291
C -0.1161033329 -0.6946028744 -1.4963896026
C -1.4601609102 -0.0100730884 -1.5553012949
C -2.0722197310 0.5374670668 -0.4171878606
C -3.3265889001 1.1461188416 -0.5528406198
C -3.9745316881 1.1961921855 -1.7829065823
O -5.2070029946 1.7770628276 -1.9385336068
C -3.3755141457 0.6440255904 -2.9145509375
C -2.1284398063 0.0522264639 -2.7831378079
C -1.3444083171 0.5677359406 0.9279219069
C -2.2974862641 0.5028589379 2.1338802822
C -3.0595998922 -0.8215703374 2.2042212297
C -2.0887341885 -2.0044991389 2.2558061636
C -1.1133903816 -1.9595384571 1.0763080801
C -0.3559072938 -0.6341821679 1.0228465142
O 0.4194080228 -0.5502308410 2.2331235428
C -0.5164748877 1.8719760691 0.9799328777
C 0.5928012053 1.8952806156 -0.0662437531
N 1.4167893750 0.6797413453 0.0206827474
C 2.5858622086 0.7794155004 -0.8617601839
C 3.5395470795 -0.3923465194 -0.7456999094
C 4.1520812229 -0.7181533399 0.6401628902
C 5.4898320785 -1.0327817420 -0.0780462255
C 4.9832762783 -0.2006360062 -1.2845104307
H 1.3152559580 -1.3946512777 -0.0567870108
H 0.5210464161 -0.3271895266 -2.3103014998
H -0.2557659577 -1.7652105466 -1.6972420833
H -3.8178188619 1.5903751176 0.3075720315
H -5.5116671295 2.1104854316 -1.0840441626
H -3.8844551718 0.6850789686 -3.8723084282
H -1.6513245111 -0.3763196633 -3.6614784455
H -1.6844713957 0.6107768161 3.0361604579
H -2.9849721092 1.3555355072 2.1271240358
H -3.7132212815 -0.8287458083 3.0844072353
H -3.7076388844 -0.9216217887 1.3231914194
H -2.6411734848 -2.9511418629 2.2388735664
H -1.5284727116 -1.9767507492 3.1981674141
H -1.6775677219 -2.0876962414 0.1458698781
H -0.3839263245 -2.7767549165 1.1363025033
H 1.1662035254 0.0302618821 1.9961377236
H -0.0784591815 1.9690688455 1.9804613429
H -1.1833125547 2.7289241798 0.8286288140
H 1.2461326895 2.7574423810 0.1131093943
H 0.1657658353 2.0235820209 -1.0782501133
H 2.2948601104 0.9143867563 -1.9226915240
H 3.1235830449 1.6918777233 -0.5692554874
H 3.1133791159 -1.2998756800 -1.1892343951
H 3.6857598953 -1.5066335731 1.2383426086
H 4.2300482286 0.1921484760 1.2453319853
H 6.4174917625 -0.7159488083 0.4063796419
H 5.5634709681 -2.0945264758 -0.3320752322
H 5.2917213997 0.8472424887 -1.1990656559
H 5.2072641044 -0.5614807370 -2.2922892761
