41
CONF118
C -4.2726651171 1.2658371761 -2.2682588578
C -4.4311827706 0.1339267686 -1.2539768300
N -3.7213447529 0.3724593046 0.0116283991
C -4.5025102326 0.8902447256 1.1321450146
C -4.4723953901 2.4158295744 1.2186959893
O -5.1316096957 2.7629949079 2.4395468499
C -2.3722992561 0.2204267862 0.1070520287
C -1.6662612348 0.5424552651 1.2991964004
C -0.3071494056 0.3539988864 1.3835189076
C 0.4374266245 -0.1540486948 0.3005343781
C -0.2537841952 -0.4710381239 -0.8914257113
C -1.6092855187 -0.2871922020 -0.9883135390
N 1.7933193363 -0.2906955097 0.5058800259
N 2.4692829847 -0.7393128923 -0.4799353052
C 3.8391128363 -0.8719241832 -0.2252066478
C 4.6160737629 -1.3053948337 -1.3144933799
C 5.9817198882 -1.4735219512 -1.1874330303
C 6.5766326945 -1.2086875381 0.0460876949
C 5.8277905642 -0.7819449829 1.1468373489
C 4.4646687135 -0.6145323724 1.0122552556
N 8.0137173899 -1.3826309414 0.1912747821
O 8.6581373712 -1.7619532542 -0.7889519153
O 8.5235125052 -1.1427068991 1.2880239376
H -3.2210612386 1.4408037377 -2.5118310529
H -4.6966158769 2.1974516027 -1.8844687978
H -4.7992464234 1.0038701543 -3.1910574327
H -4.0925148558 -0.8159742711 -1.6807326807
H -5.4872974496 0.0036030780 -1.0060754232
H -4.1359409301 0.4668682371 2.0733834551
H -5.5357711967 0.5530901849 1.0132733494
H -3.4314298738 2.7707804318 1.2129618449
H -4.9903267115 2.8508337305 0.3533807772
H -5.2031157005 3.7241323960 2.4764159155
H -2.1850418614 0.9490831910 2.1569015479
H 0.2196705357 0.6046416086 2.2993238775
H 0.2960460203 -0.8626261154 -1.7393397173
H -2.0959342688 -0.5394048767 -1.9210876112
H 4.1220350266 -1.5031976403 -2.2599069798
H 6.5846920624 -1.8038098686 -2.0235593584
H 6.3204743711 -0.5885550039 2.0915910109
H 3.8704722692 -0.2870210994 1.8561449926
