38
CONF22
C 2.6164048725 -1.4108236947 -1.6302511440
C 2.5080705329 -0.8886537656 -0.2390090823
N 1.3170158648 -0.9660134110 0.3645580578
C 1.2644828891 -0.4363691068 1.5961593831
N 2.2842296685 0.1220987845 2.2492169054
C 3.4247643987 0.1257323382 1.5515724809
N 3.6026444231 -0.3528111492 0.3155641528
O 4.4476294536 0.6732412001 2.1998897552
C 5.7277833776 0.7243157974 1.5203340650
N 0.0652851435 -0.4460127349 2.2779301578
C -1.2083587363 -0.8759754490 1.8954957356
O -2.1665218208 -0.6710365934 2.6225500068
N -1.2713709096 -1.5402523008 0.6874854074
S -2.7619327020 -1.8605240916 -0.0607917678
O -3.5618991527 -2.7082397868 0.8253418012
O -2.4079619438 -2.3427363313 -1.3973532707
C -3.5992240565 -0.2806914638 -0.1522470621
C -3.1575044377 0.8529038092 -0.8154966386
S -4.3389611168 2.1173423831 -0.6631941052
C -5.3838359210 1.1172153108 0.2659892797
C -4.8622022786 -0.1331068099 0.4646027203
C -1.8997040825 1.0868363400 -1.5347233493
O -0.9948258312 0.2800030906 -1.6213586159
O -1.8742711921 2.3150065786 -2.0812070329
C -0.6601911970 2.6498931024 -2.8001583418
H 3.5715478150 -1.9208379331 -1.7721073576
H 1.7842657878 -2.0760537060 -1.8622601293
H 2.5891425235 -0.5632966139 -2.3258226902
H 6.3966984699 1.2099568842 2.2294446162
H 5.6465770205 1.3101918753 0.6024602480
H 6.0756959261 -0.2851643357 1.2914083055
H 0.0826804359 -0.0070041139 3.1902432414
H -0.4422883221 -1.4667524438 0.0738467789
H -6.3286234908 1.5048192230 0.6246637056
H -5.3513426323 -0.9160820358 1.0276215030
H 0.1989688160 2.5926369543 -2.1278443805
H -0.8091891190 3.6690855541 -3.1526976982
H -0.5236797831 1.9646940550 -3.6398556465
