73
CONF96
C -3.0108268531 -2.0014209128 -1.8996572263
C -2.5358827735 -1.4600955947 -0.5429514081
C -3.7344217878 -1.2206502340 0.3343985668
C -4.0051628997 -1.8614819630 1.4708547840
C -5.1933061489 -1.6133200010 2.3559386764
C -4.7057015205 -1.0429572475 3.6976777761
C -6.0312395336 -2.9029658027 2.5381176238
C -6.5273846687 -3.4280106945 1.1885881525
C -7.2195589770 -2.6904925191 3.4802454222
C -1.7162483414 -0.1583760075 -0.6503643293
C -1.2666769175 0.3470958009 0.7533168688
C 0.1070057205 1.0375469277 0.5714283075
C 0.2558372640 1.1464857610 -0.9433026254
C -0.4065844666 -0.1618254504 -1.4855929486
C -0.5722032148 0.0031829648 -3.0024935283
C 0.7617182850 0.3226850850 -3.6898558679
C 1.4726555194 1.5416447052 -3.0702690383
C 1.5874034527 1.4133571653 -1.5733574166
C 2.7344463694 1.4924054824 -0.8632507777
C 4.0520656455 1.7658414016 -1.3863488686
C 5.2136314882 1.7490045346 -0.6899409921
C 6.5158832254 2.1544768557 -1.3390565551
C 7.2726370017 3.1962624063 -0.5170146090
C 7.4572438409 2.7189566688 0.9226528721
C 6.1154978340 2.3640107709 1.5751234362
C 5.3343952383 1.3806626458 0.7351636171
C 4.8404769767 0.2440438008 1.2429884634
O 6.5059414648 4.4141354574 -0.5770648937
C 0.4504154182 -1.3908091834 -1.1532126907
H -3.6875928614 -2.8491163060 -1.7500664541
H -2.1756388335 -2.3440563588 -2.5148970299
H -3.5534161999 -1.2293438129 -2.4578263350
H -1.9115363879 -2.2227741297 -0.0572866745
H -4.4343533129 -0.4601310042 -0.0241401844
H -3.3040855957 -2.6216222699 1.8281878428
H -5.8360559263 -0.8644003187 1.8687289555
H -4.0625704662 -0.1734971121 3.5291529786
H -5.5381246876 -0.7287800562 4.3332231069
H -4.1219971446 -1.7938867755 4.2440150726
H -5.3687029086 -3.6610742105 2.9838189396
H -5.6977158820 -3.6442942351 0.5094476768
H -7.1712081734 -2.6828732949 0.7041955607
H -7.1128290002 -4.3439584402 1.3199054300
H -7.8513123714 -1.8681982861 3.1212680411
H -7.8382216857 -3.5931259520 3.5226815328
H -6.9057428556 -2.4564043254 4.5008945027
H -2.3713525386 0.6012796408 -1.1047018216
H -1.1935889453 -0.4971338769 1.4476725420
H -2.0122774266 1.0279361656 1.1740966598
H 0.1599432857 2.0143393760 1.0621485156
H 0.9046016532 0.4192828399 0.9965400081
H -0.4165372499 1.9549189528 -1.2814416870
H -0.9981382399 -0.8967333930 -3.4565774047
H -1.2806969269 0.8236271764 -3.1875684196
H 0.5891276545 0.5110406535 -4.7558165398
H 1.4276051612 -0.5466454659 -3.6303254725
H 0.8709723597 2.4369427175 -3.2906120113
H 2.4448193431 1.6820288738 -3.5485681549
H 2.6711557689 1.3571020736 0.2131955537
H 4.1228520725 2.0585725280 -2.4322602332
H 6.3393817949 2.5348852318 -2.3504523084
H 7.1719406348 1.2761049324 -1.4236516588
H 8.2589686347 3.3630419765 -0.9762890585
H 8.1120135574 1.8379789655 0.9124451471
H 7.9683040794 3.4941477858 1.5069988664
H 5.5230167570 3.2835477223 1.6732877030
H 6.2714555081 1.9610581021 2.5805670057
H 4.9705559681 -0.0015448571 2.2937899387
H 4.3055182335 -0.4676424575 0.6211409812
H 6.9714087050 5.0775422919 -0.0522605548
H 1.4850168018 -1.2571659923 -1.4822060798
H 0.0512575195 -2.2830480518 -1.6471096252
H 0.4717230827 -1.5873200530 -0.0770592126
