40
CONF28
C 2.8270516389 2.1464256280 4.2673285375
O 3.1491207377 2.8890905032 3.0703607523
C 2.2127861182 2.8437886085 2.1055498727
O 1.1449951427 2.2846267491 2.2176418386
C 2.6757704549 3.5827785461 0.8697884334
S 4.0123924848 2.7142259043 -0.0393565980
C 3.1264757390 1.4848867524 -0.9739032874
C 1.7734676162 1.1901846527 -0.8107005222
C 1.1336533932 0.2108474967 -1.5787104698
C 1.8984605421 -0.4618989519 -2.5375786998
C 3.2428983210 -0.2015750306 -2.7225886558
C 3.8504262880 0.7659563436 -1.9361300664
Cl 5.5549587610 1.0880341081 -2.1690958344
F 1.3055903014 -1.3859123088 -3.3244286115
N -0.2322806752 -0.0097601678 -1.4194087039
C -0.6674163962 -1.1551034736 -1.0636496850
N -2.0214925297 -1.4383082753 -1.0117949357
N -2.3090638941 -2.5782039625 -0.2271564010
C -1.2445866236 -3.4124471037 0.0080330998
O -1.3010437571 -4.5260075443 0.4724731769
S 0.2799749577 -2.5658536878 -0.5032106902
C -3.6481864032 -3.1359131473 -0.4436661345
C -4.6875105868 -2.0539152714 -0.1762026504
C -4.3866825888 -0.8188130328 -1.0250393392
C -2.9642542363 -0.3298721757 -0.7797160045
H 2.6758061606 1.0915889240 4.0250859716
H 1.9201970164 2.5453590868 4.7286666440
H 3.6856638306 2.2730716385 4.9256200556
H 3.1298408449 4.5342388737 1.1617624504
H 1.8257255228 3.7736862041 0.2118119054
H 1.1745247068 1.6841936240 -0.0558488889
H 3.8017919272 -0.7442134509 -3.4752162515
H -3.7260953037 -3.5019928427 -1.4787787135
H -3.7436630283 -3.9838288877 0.2370407457
H -5.6823205266 -2.4495319484 -0.4044525563
H -4.6696811360 -1.7912116844 0.8885300611
H -4.5069137146 -1.0593432130 -2.0885442858
H -5.0828591557 -0.0075218143 -0.7896521668
H -2.8449995614 0.0409121773 0.2502128112
H -2.6825235950 0.4673320477 -1.4683712105
