33
CONF77
C 4.6729649930 0.9878512614 -1.0735430643
C 4.9993887305 1.2009294084 -2.5543835760
O 4.6284388650 0.1111930828 -3.3962570458
C 3.1917649994 0.9365836523 -0.7762453626
C 2.8771243648 0.8852777648 0.7470508790
C 1.3838176825 1.0353491493 1.2195977895
C 0.3315454417 0.0379360688 0.6312803262
C -0.9967848797 -0.0205919754 1.4724377113
C -2.2002593496 -0.6384017446 0.6746414034
C -3.3723847747 -1.1126322973 1.6010148401
C -4.7277930645 -1.3292837337 0.8496503431
F -5.5819130957 -1.9500606014 1.6740128398
F -5.2638742551 -0.1616709475 0.4804825452
F -4.5414303655 -2.0919578426 -0.2368158277
F -3.5834048872 -0.1902871808 2.5683935562
F -3.0299864555 -2.2856249548 2.1744136168
F -2.6759213586 0.2926374445 -0.1826285064
F -1.7620518361 -1.7044554943 -0.0328246182
F -1.3377065309 1.2304308635 1.8533615872
F -0.7780022262 -0.7746495491 2.5733609248
F 0.0236496125 0.4290242976 -0.6271084583
F 0.8613814797 -1.2040690435 0.5994025954
F 0.9803686773 2.2959228343 0.9503966684
F 1.4034483097 0.8677597646 2.5694236902
F 3.3669123773 -0.2775658796 1.2444010038
F 3.5337489350 1.9118288682 1.3543850729
F 2.5510669177 2.0363842568 -1.2896666167
F 2.6043314540 -0.1663879877 -1.3377106093
H 5.1303187996 0.0629095876 -0.7062429054
H 5.1016694162 1.8191237739 -0.5046988125
H 6.0763171391 1.4051328186 -2.6257161785
H 4.4676200605 2.0765997596 -2.9362782823
H 5.1472233850 -0.6592563975 -3.1326221652
