25
CONF1
C -0.2154618253 -0.0381029175 1.6870874673
C 0.1194182903 1.2163325683 0.8668779586
C -0.9872979857 1.4687465166 -0.1653964247
C -1.1084972333 0.2505423985 -1.1116342928
C -1.4351384197 -1.0115312056 -0.2788551273
C -0.3262252284 -1.2527875049 0.7536932631
C 1.0057888202 -1.4655855414 0.0221917427
C 1.3536205938 -0.2069940343 -0.8068924081
C 1.4534708271 1.0149461068 0.1363020502
C 0.2281920561 0.0404030505 -1.7849594409
O 0.3835607926 0.0665831087 -2.9988402045
H 0.5656542892 -0.2136597881 2.4378622638
H -1.1622974905 0.1079715179 2.2226326454
H 0.1979403319 2.0842032978 1.5329098792
H -0.7667151923 2.3723551851 -0.7470125302
H -1.9519055848 1.6219874917 0.3343399415
H -1.8715970485 0.4235866867 -1.8772318873
H -1.5341232929 -1.8809479700 -0.9404654056
H -2.4002360407 -0.8620693833 0.2211081988
H -0.5649271278 -2.1487414673 1.3396089421
H 0.9417800489 -2.3404757245 -0.6364473393
H 1.8147347492 -1.6482529384 0.7405981516
H 2.2858800204 -0.3495118740 -1.3627525673
H 2.2633719936 0.8388039775 0.8552432893
H 1.7110095566 1.9121983432 -0.4399683652
