22
CONF46
C 2.4377743507 -0.5143297712 0.5786328988
C 1.0542510878 0.1286109969 0.5632624102
C 0.2136031948 -0.3628838972 -0.6119526020
C -1.2060285360 0.2006437401 -0.6288072076
C -2.0483642433 -0.2475867086 0.5516702453
O -3.3607563857 0.2950268002 0.3417201157
O -1.7808611488 -0.2739013238 -1.8591994499
O 0.9018017216 0.0391427655 -1.8055301324
O 1.1809150762 1.5583366413 0.5585316034
O 3.1861600279 -0.0839061541 1.7193656738
H 2.9726057814 -0.2743374483 -0.3514016522
H 2.3398155377 -1.6024275594 0.6542867709
H 0.5513262519 -0.1248549947 1.5029382046
H 0.1501954368 -1.4629360726 -0.5636715745
H -1.1581885965 1.3000758363 -0.6437597918
H -2.0798855316 -1.3459927318 0.5894557672
H -1.6213804122 0.1320224595 1.4896981989
H -3.9549577517 -0.1018003719 0.9894964404
H -2.6790614897 0.0791826940 -1.9062879956
H 0.2623809326 -0.0274640785 -2.5290504398
H 1.4569981586 1.8062612083 -0.3365864837
H 3.1816573419 0.8831181657 1.6971890109
