44
CONF1
C 2.1011958536 -1.4844048040 -2.0073301885
N 2.1846822684 -0.0622144763 -2.3445697836
C 2.7558223238 0.0951678566 -3.6833004269
C 3.0008876887 0.6731088416 -1.3711956772
C 2.3951934692 0.6974215573 0.0380498272
C 1.0257019160 1.2953140800 0.0489617335
C -0.1042086009 0.7282911257 0.5061921357
C -1.3956535126 1.4665646814 0.4468229741
C -1.3922396818 2.8033678585 0.8877331366
C -2.5390169083 3.5837389925 0.8846289108
C -3.7385220487 3.0311343182 0.4412585266
C -3.7584532791 1.7124167003 0.0085191529
C -2.6112258154 0.9065007208 -0.0002503178
C -2.8017419397 -0.5033411963 -0.5294784766
C -1.5499712312 -1.3430425796 -0.8012321761
C -0.8121316563 -1.6594439634 0.4664431558
C -0.8165966908 -2.9365611852 1.0281740644
C -0.1439970303 -3.1944439139 2.2212958467
C 0.5420161186 -2.1679253327 2.8656260560
C 0.5535672741 -0.8896606962 2.3121183690
C -0.1166302789 -0.6270857943 1.1144130579
H 1.5143458647 -2.0050651982 -2.7712688052
H 1.5974741042 -1.6231802529 -1.0461060373
H 3.0987878124 -1.9630423685 -1.9519721475
H 2.7893621421 1.1565443755 -3.9513754179
H 3.7834733535 -0.3114263267 -3.7562428673
H 2.1313374316 -0.4270842835 -4.4157628731
H 3.0948982806 1.7054943985 -1.7322187998
H 4.0256798186 0.2533248977 -1.3118090097
H 2.3917930082 -0.3020126384 0.4808512025
H 3.0654659187 1.3097918710 0.6580662227
H 0.9470904744 2.2812251988 -0.4108287971
H -0.4615541490 3.2196898954 1.2607320555
H -2.4992560848 4.6096082133 1.2377783949
H -4.6500581058 3.6209106423 0.4338204049
H -4.6917406124 1.2826217532 -0.3482997360
H -3.3802967265 -0.4293933361 -1.4583238479
H -3.4407427661 -1.0517034711 0.1767591890
H -1.8564979676 -2.2709812421 -1.2938917938
H -0.8898929279 -0.8049096763 -1.4937841058
H -1.3476316683 -3.7375504657 0.5201479887
H -0.1547404120 -4.1941785013 2.6447884769
H 1.0677588439 -2.3601264133 3.7958631257
H 1.0862672137 -0.0834593967 2.8086752617
