18
CONF1
C -0.0259987808 0.7161775168 0.0485723523
C -0.0078934815 -0.7221667010 0.0074547530
C 1.2495632079 -1.3612729852 -0.2215012459
C 2.4333513869 -0.6562311037 -0.1131901312
C 2.4105294093 0.7089716212 0.2530111889
C 1.2071469308 1.3853709506 0.3198242957
Cl 1.2365117147 3.0109544679 0.9249050067
Cl 3.8989406900 1.5088512147 0.6129412879
Cl 3.9520782197 -1.4199617488 -0.4215200336
Cl 1.3380524220 -2.9848623464 -0.8264223974
C -1.2486238330 -1.4047935907 0.1981013415
C -2.4499108699 -0.7248649779 0.1296648933
C -2.4618110815 0.6594265215 -0.1570020904
C -1.2758611593 1.3685697646 -0.1842532705
Cl -1.3465294376 3.0250921190 -0.6948265355
Cl -3.9702897258 1.4412576802 -0.4700864241
Cl -3.9487032604 -1.5431656977 0.3915492720
Cl -1.2960158716 -3.0622619827 0.7084913664
