29
CONF46
C -1.8159230464 -0.0643728184 -2.2454848099
N -1.5508584538 -0.8160150605 -1.0099278998
C -2.5252243469 -0.6324323513 0.0858057862
C -3.7382183001 -1.5301482444 -0.1360233764
O -3.4133338548 -2.9055860756 -0.0464518892
S 0.0398152714 -1.1633494713 -0.6424708740
O 0.0557547658 -1.9733962934 0.5723291225
O 0.7189596318 -1.5405407740 -1.8776969168
C 0.7793829483 0.5416673997 -0.1466258147
C 2.1050013161 0.4145157698 0.6620842555
C 2.9422587535 1.7364540640 0.6967770116
C 4.0426817925 1.7717814214 1.8065632449
F 3.4951751955 1.8962290353 3.0199996474
F 4.7806926842 0.6544330936 1.7682759351
F 4.8407513334 2.8263382702 1.5881874761
F 2.1079667050 2.7826678398 0.9149193846
F 3.5526863669 1.8997864889 -0.4954154555
F 2.8582019105 -0.5530020197 0.0944890456
F 1.8005851071 0.0594360669 1.9293745782
F -0.1517118323 1.1858241807 0.5925995833
F 0.9909333217 1.2414570323 -1.2816863202
H -1.0733118250 -0.3216416085 -3.0015036338
H -2.8017979264 -0.3531748163 -2.6202061545
H -1.8067576196 1.0196928891 -2.0689457829
H -2.8286841144 0.4233087897 0.1353394301
H -2.0542348518 -0.9097410451 1.0318681557
H -4.4655498060 -1.3260907195 0.6571440483
H -4.2249597557 -1.2935934691 -1.0967166872
H -2.6602822594 -3.0705075798 -0.6283012980
