54
CONF86
C 1.2149766952 -1.1186605796 2.5216266932
C 1.0444364255 0.3991770020 2.4988114494
C 2.2060345709 1.0597909176 1.8049679885
C 3.0766597040 0.3134973534 0.9984821928
C 4.1653879460 0.9169985843 0.3647658816
C 4.3955799072 2.2794909722 0.5102569464
C 3.5165736465 3.0081563324 1.2948950658
C 2.4416299124 2.4304146245 1.9412968427
F 3.7232946142 4.3492303649 1.4381981749
O 2.9226820660 -1.0335726626 0.7913416247
C 1.6222613788 -1.5830200128 1.1345465260
C 1.7690856951 -3.0895974471 0.9468708293
C 0.4426915639 -3.8467779406 1.1216931083
N -0.6996932720 -3.3225400709 0.3722489151
C -0.4916354095 -3.2647924272 -1.0799819562
C -1.7654664004 -2.7826614930 -1.7686159605
C -2.1725618884 -1.3623435105 -1.3531464833
C -3.2641086600 -0.7637407172 -2.2208773285
C -3.6372695406 0.6130533444 -1.6750962931
C -2.4006922033 1.4217525389 -1.3755482062
C -1.1475561679 0.8006882097 -1.2808472460
O -0.9758108599 -0.5516307484 -1.4320342735
C 0.0099853509 1.5451156260 -1.0426341727
C -0.0623719439 2.9220709015 -0.8749951680
C -1.3087866579 3.5216017794 -0.9538709971
C -2.4649246123 2.8076068714 -1.2038033440
F -1.3974514149 4.8729743407 -0.7871715386
O -2.8587778023 -3.6674103167 -1.5039297646
O 2.6755338960 -3.6609346991 1.8972826267
H 0.2789304987 -1.6000997599 2.8203511696
H 1.9877622143 -1.4151156078 3.2389174953
H 0.1170717279 0.6569448902 1.9682131210
H 0.9467476614 0.7976773968 3.5139617460
H 4.8230619259 0.3086851581 -0.2476347544
H 5.2327681409 2.7663453300 0.0222868746
H 1.7843948288 3.0400797925 2.5543789213
H 0.9040571039 -1.2023658688 0.3920021919
H 2.1557555617 -3.2515584167 -0.0710499303
H 0.6134473007 -4.8895669294 0.8267659410
H 0.1864975944 -3.8506878741 2.1881559706
H -0.2724985726 -4.2803221964 -1.4341279298
H 0.3424825053 -2.6187707347 -1.3923227973
H -1.6018484106 -2.7966089590 -2.8534608905
H -2.8884726989 -0.6856954163 -3.2490613401
H -4.1315175226 -1.4287771202 -2.2260160143
H -4.2673721573 1.1575169733 -2.3860081903
H -4.2275430347 0.4965747198 -0.7566523619
H 0.9647178835 1.0326351293 -0.9810219982
H 0.8256226051 3.5137717041 -0.6815318307
H -3.4175559143 3.3243927428 -1.2746030564
H 3.5402467432 -3.2542218448 1.7536488339
H -2.5114575148 -1.3726382088 -0.3039675028
H -2.7841922862 -3.9007387730 -0.5651296294
H -0.9184141087 -2.3932673007 0.7192376858
