44
CONF9
C 1.1942213945 3.1617930414 1.9662954505
C 1.1993709946 1.7324033870 1.4328288495
C 0.3186148560 1.6023199975 0.1742163333
C 0.3248435809 0.1884975332 -0.3558557674
C -0.7271358172 -0.7341773960 -0.1833885615
C -0.4967231309 -2.1263708188 -0.3436450820
C 0.7149179841 -2.5764871729 -0.8478875012
C 1.7206892446 -1.6799512214 -1.1822189290
C 1.5053505993 -0.3194622497 -0.9037198158
O 2.4879859873 0.6107433063 -1.1239493981
C 3.6766001648 0.2137022610 -1.6300932684
C 3.9746355341 -1.0614831500 -1.9516076514
C 3.0040159294 -2.1338349384 -1.7503637375
O 3.2444158407 -3.3044654131 -2.0215987284
C 4.5941040561 1.3820448415 -1.7629568214
O 4.3156600414 2.5042349273 -1.4197564563
O 5.7766668716 1.0217380362 -2.3099108560
C -1.5163199843 -3.1114272865 0.0793125159
O -1.3860219759 -4.3214443950 -0.0897766709
C -2.6637132465 -2.5318027734 0.7532348215
C -2.8842580351 -1.1922361573 0.7378390455
N -2.0016004305 -0.2826123529 0.1826898178
C -2.5949719551 0.8381425211 -0.6178408183
C -3.6388035471 0.3313188161 -1.6063294690
C -4.0728769000 -0.6094737681 1.4335321272
O -4.1475244686 0.5280018187 1.8386391562
O -5.0624068493 -1.5186842876 1.5932143342
H 1.8066808797 3.2459818813 2.8685281454
H 1.5971062901 3.8559256563 1.2214615102
H 0.1791639015 3.4869841458 2.2189537310
H 2.2247440283 1.4288849901 1.2020856027
H 0.8217579698 1.0404880652 2.1952839325
H -0.6883974199 1.9099362813 0.4545101354
H 0.6780746333 2.3020867684 -0.5894350260
H 0.8730545703 -3.6414419910 -0.9825307525
H 4.9487203185 -1.3065739852 -2.3534759714
H 6.3176862485 1.8253167951 -2.3548479590
H -3.3615158016 -3.1969735011 1.2436992101
H -3.0139445915 1.5873786419 0.0564328759
H -1.7765456236 1.2887112908 -1.1769405661
H -3.9691802705 1.1640751269 -2.2342955765
H -3.2190802425 -0.4442181765 -2.2544865774
H -4.5222625332 -0.0775875069 -1.1081688945
H -5.7557994136 -1.0800026842 2.1108013514
