47
CONF63
C 4.2089947255 -2.5192997770 -3.0113236653
C 4.0080267040 -1.2439613318 -2.2941980450
C 2.9014538563 -0.5998569469 -1.8068004464
C 3.4335009582 0.5964322906 -1.2256544109
N 4.7374210769 0.6619293679 -1.3460791232
O 5.1004774219 -0.5019246686 -2.0399812520
C 2.6951487245 1.6563712994 -0.5180383079
C 1.9982321373 1.3463015698 0.6536916027
C 1.1976482398 2.2429654505 1.3321183077
C 1.0947900760 3.5331967161 0.8227298438
C 1.7748192432 3.9052460831 -0.3306749073
C 2.5609211782 2.9682250228 -0.9940531569
Cl 3.3442627540 3.4352532061 -2.4804799083
F 2.0963186410 0.0834802290 1.1204975346
C 1.5162989395 -1.1047744543 -1.8412320062
O 1.2399484509 -2.2958544264 -1.9460638568
N 0.5412884929 -0.1501548371 -1.7270953310
C -0.8071744109 -0.5384277651 -1.4164388960
C -1.0351516727 -1.1390300031 0.0059423374
N -1.7065646527 0.1192015092 0.3853778214
C -1.6872003222 0.6297029515 -0.9106576103
O -2.2096168763 1.5974479704 -1.3957663980
C -2.8768248317 0.0411701459 1.2340808811
C -3.0563594456 -1.4735523524 1.6334968076
S -2.3436602818 -2.4063837180 0.1754687640
C -4.5273921479 -1.8426194776 1.7869193776
C -2.2674245210 -1.8213813022 2.8977652812
C -2.7461552188 0.9281897147 2.4630802103
O -1.7252639912 1.3871283821 2.9090825868
O -3.9645375395 1.1299999267 3.0249260981
H 3.2399828653 -2.9727714998 -3.2182038106
H 4.7586567331 -2.3505495632 -3.9422856314
H 4.7951282318 -3.2087996942 -2.3947300917
H 0.6491205080 1.9244786937 2.2100994298
H 0.4651470093 4.2569494067 1.3283148354
H 1.6864382068 4.9075661525 -0.7308709695
H 0.8018661098 0.8155947336 -1.5915575364
H -1.2697307563 -1.1270014169 -2.2137148802
H -0.1302738499 -1.3751275291 0.5712101357
H -3.7573602262 0.3736010123 0.6691249864
H -4.6275272590 -2.9072240044 2.0168789214
H -5.0876165505 -1.6292157075 0.8726438793
H -4.9685438536 -1.2750682865 2.6116178849
H -1.2164227693 -1.5312096061 2.8164753203
H -2.6938327158 -1.3106345710 3.7696852903
H -2.3158331476 -2.8976438137 3.0761958824
H -3.8254247410 1.6820344315 3.8112754230
