30
CONF8
O -2.3375432686 2.1874985664 -0.8095158118
C -3.2426036788 1.2960743572 -1.3174401424
O -4.4050023779 1.5712606850 -1.4697196872
C -2.5920658840 -0.0361040515 -1.6081815318
C -2.2837300054 -0.7829433264 -0.3300088711
C -1.0542552430 -0.6233731600 0.3328225411
N -0.1071356261 0.2860321451 -0.1916248948
C 1.2314725800 0.2729809665 0.1809194633
C 2.0626782858 -0.8436778214 -0.0384394471
Cl 1.4093108231 -2.2569647384 -0.8301982795
C 3.4035630208 -0.8485019651 0.3185043979
C 3.9758313432 0.2916120044 0.8695643701
C 3.2065520712 1.4319763902 1.0626170651
C 1.8600984162 1.4058773589 0.7315145655
Cl 0.9022435261 2.8520598626 1.0070554742
C -0.7948964824 -1.3575116414 1.4928066926
C -1.7418561950 -2.2375477077 1.9960788471
C -2.9703285393 -2.3851897620 1.3593793307
C -3.2310553671 -1.6542663068 0.2068811264
H -2.8244754809 2.9977400102 -0.5919560342
H -3.2940211869 -0.6075196563 -2.2167974871
H -1.6688978429 0.1277968108 -2.1754040072
H -0.4862772853 1.2139958919 -0.3363505015
H 3.9960033803 -1.7367452636 0.1347312421
H 3.6365603623 2.3334694035 1.4820875450
H 0.1543304524 -1.2271683926 2.0023717576
H -1.5222341862 -2.7993465617 2.8981037555
H -3.7165321153 -3.0669203486 1.7523733139
H -4.1833993587 -1.7667893870 -0.3034526981
H 5.0262403076 0.2952828731 1.1373565786
