50
CONF9
C 4.1720296994 -3.1844805003 -0.9804933658
C 2.9110959886 -2.8850940657 -0.2291123216
O 2.6691170780 -3.2211929684 0.9112073947
O 2.0575214089 -2.1542110218 -0.9866617476
C 0.8183769777 -1.7491025221 -0.3556383707
C -0.2013315977 -2.8648771034 -0.3542259947
C -1.4621910888 -2.5870851684 -0.0042538979
C -1.7346577198 -1.1630177370 0.3714178428
C -3.1638648572 -0.6810536228 0.6561993462
C -3.1337577728 0.7873593806 1.2299034195
C -1.9119535999 1.6025754426 0.8567792499
C -1.0224683083 1.0806314867 -0.0637369935
C -1.1691869433 -0.2388573361 -0.7337110682
C 0.2831465270 -0.5579159181 -1.1475844702
O 1.0761292533 0.6639696987 -0.9029338755
C 0.2810243971 1.5245543034 -0.1999765755
C 0.6754302301 2.6825191384 0.4498910311
C -0.2469263914 3.3214763107 1.2798103773
C -1.5127987450 2.7797363302 1.5102156216
O 1.9635747977 3.2036045342 0.2948691485
C 2.9830850057 2.5256389375 0.9189764351
O 2.7961950414 1.5696446195 1.6324696956
C 4.3024440828 3.1362077580 0.5717272801
C -2.0869673711 -0.2493314731 -1.9676954022
C -3.5384450453 0.0402714460 -1.6229195849
N -3.9844563241 -0.8522168547 -0.5515937402
C -5.4133925198 -0.6965735828 -0.2916215751
H 4.7764409877 -2.2721893557 -1.0276484654
H 4.7334410788 -3.9607883943 -0.4619839875
H 3.9495159243 -3.4880321575 -2.0058037282
H 1.0374810057 -1.4227451148 0.6711738973
H 0.1333233328 -3.8585818648 -0.6358888486
H -1.1543211690 -0.9539850541 1.2837368704
H -3.6032354511 -1.3237878141 1.4281847033
H -3.1673036027 0.7330367200 2.3242204889
H -4.0532886310 1.3060922308 0.9342669853
H 0.3718125798 -0.7680592184 -2.2167235278
H 0.0670803883 4.2239065959 1.7952953490
H -2.1673385808 3.2526659007 2.2364611343
H 4.5267468266 2.9168375365 -0.4774857214
H 4.2615451205 4.2226705647 0.6797200020
H -1.7183107025 0.4854263494 -2.6924567766
H -2.0156564784 -1.2410045742 -2.4314524096
H -3.6622138963 1.1065565568 -1.3487625564
H -4.1665265159 -0.1330345179 -2.5044723802
H -5.7038971976 0.3314709972 -0.0070020031
H -5.9744620926 -0.9595390221 -1.1949391677
H -5.7181323675 -1.3736509703 0.5134118691
H 5.0805512751 2.7149234490 1.2065960415
H -2.2403616378 -3.3449286147 0.0142632438
