47
CONF85
C -1.8714868845 2.4244118960 3.0415457247
C -1.9474037848 2.5569669882 1.5370934217
C -3.2293280515 3.0104679025 0.8802428596
C -2.8350828578 1.5324494163 0.8264020799
C -2.4433223482 0.9652469884 -0.4708354227
O -2.1168514101 1.5671369438 -1.4712432149
O -2.4790351686 -0.4033384085 -0.4099592934
C -2.0181201369 -1.0693362325 -1.6124805312
C -2.5610900535 -2.4256751987 -1.5353758956
N -2.9552460244 -3.5104489210 -1.5013210167
C -0.5062201012 -1.0916911763 -1.7033225556
C 0.1237984241 -0.6812351326 -2.8751059718
C 1.5148047485 -0.7013080498 -2.9425462742
C 2.2742269065 -1.1215780089 -1.8567049782
C 1.6242261114 -1.5367453888 -0.6935578581
C 0.2365995499 -1.5292840129 -0.6087862914
O 2.3062757141 -1.9054339026 0.4458914051
C 3.5318380650 -2.5469640507 0.3213588264
C 4.5597460571 -2.1166758396 1.1523981659
C 5.7816543845 -2.7846146180 1.1186954986
C 5.9716835519 -3.8638626006 0.2585236725
C 4.9281162955 -4.2821826313 -0.5662389560
C 3.6988164262 -3.6302831956 -0.5376366375
C -4.4182196000 3.3871676165 1.6470374501
C -5.2708175658 4.3572325157 1.3155946259
Cl -6.6654464162 4.7442488629 2.2913846756
Cl -5.1157819121 5.3546820203 -0.1052160410
C -0.6496551970 3.0000054546 0.9018374181
H -1.0507142177 1.7507192065 3.3080915331
H -2.7895100049 2.0275169012 3.4792140936
H -1.6669482404 3.4030562913 3.4895080410
H -3.0862055456 3.5297310231 -0.0623281209
H -3.3658119898 0.8518031498 1.4832883792
H -2.4406910139 -0.5776861279 -2.4964088087
H -0.4648773354 -0.3387313589 -3.7197543485
H 2.0162714722 -0.3706811185 -3.8462727128
H 3.3574353672 -1.1220762511 -1.9076912785
H -0.2464843419 -1.8565715954 0.3065455947
H 4.3948369506 -1.2717580866 1.8128225975
H 6.5881725956 -2.4535164700 1.7653794674
H 6.9262603994 -4.3789580928 0.2323832826
H 5.0656531041 -5.1284805133 -1.2320509852
H 2.8797962544 -3.9572517187 -1.1700169916
H -4.6414370360 2.8416795728 2.5588701019
H 0.1401323789 2.2683269064 1.1063196913
H -0.3459528225 3.9567407885 1.3395053743
H -0.7386040828 3.1267785475 -0.1780339801
