17
CONF2
C -2.1080011785 -0.1024193393 0.3007868306
C -0.8345981045 -0.2201129797 -0.5413302796
C -0.3539517319 1.1506373871 -1.0479740974
C 0.3114707456 -0.8896452818 0.1808214266
O 1.0905653110 -1.6844518107 -0.2502703562
O 0.3827816371 -0.3715374430 1.4901105563
O 1.4451066791 -0.9430133014 2.2117399731
N 2.7688879876 -0.2428076536 1.8090850759
O 2.6803515971 0.6276841784 1.0064049192
O 3.6669071069 -0.7276167976 2.4157829481
H -2.4149913846 -1.0717304026 0.7031837809
H -1.9687631548 0.5882338666 1.1360090757
H -2.9191829225 0.2792170030 -0.3257977204
H -1.0190480561 -0.8703942347 -1.4030944907
H 0.5508024893 1.0550716944 -1.6540542342
H -1.1369125327 1.6038740666 -1.6627141074
H -0.1414249961 1.8190109583 -0.2090152988
