35
CONF3
C -5.6287838824 -0.1647289028 -0.9470255207
C -4.2939131620 -0.3864465616 -0.2480182507
C -4.5521493575 -0.7437290167 1.2137148611
O -4.7299206005 -1.8748829471 1.5977906574
O -4.6216326588 0.3450994135 2.0077133651
O -3.5384439898 0.8063705043 -0.4127507149
C -2.2330234517 0.8048010022 0.0050760827
C -1.5506011914 2.0105234339 -0.1685300388
C -0.2223525450 2.1176382640 0.2126610456
C 0.4167242737 1.0198835687 0.7710666480
C -0.2494344913 -0.1778693274 0.9561052721
C -1.5825573577 -0.2941281902 0.5700848352
O 1.7302928377 1.1759329881 1.2331319896
C 2.7399700474 0.6074545459 0.5243270936
N 2.4796670143 0.0070585688 -0.6248466297
C 3.5084594910 -0.5291559648 -1.2906655346
C 4.8163678011 -0.4787562175 -0.8307045554
C 5.0713020843 0.1620857015 0.3877184914
C 4.0220356295 0.7196887658 1.0835503163
C 5.9385508998 -1.1195344355 -1.5808954642
F 6.3563347598 -2.2662273877 -0.9807307974
F 5.5952340860 -1.4393722885 -2.8475601283
F 7.0242690946 -0.3077202275 -1.6464158886
H -6.2522428464 -1.0566259160 -0.8495034455
H -6.1462839155 0.6899914711 -0.5042969611
H -5.4537628858 0.0361177353 -2.0063307399
H -3.7720785431 -1.2433656099 -0.6944911241
H -4.8115592425 0.0243125902 2.9040435819
H -2.0780729069 2.8515590198 -0.6041819439
H 0.3221270074 3.0463129351 0.0825531928
H 0.2694985036 -1.0224653643 1.3954920690
H -2.0875893477 -1.2405428088 0.7223865294
H 3.2710374429 -1.0142950239 -2.2339036684
H 6.0833999909 0.2206129747 0.7745519215
H 4.1591314121 1.2304974917 2.0288833423
