37
CONF11
C -2.0309584653 -0.7358492700 -1.1995475435
Si -0.3892701631 -0.5047783970 -0.3318059803
C -0.3858772060 -1.5599525833 1.2669437349
N -1.3952732173 -1.0999907563 2.2165282200
C -2.6819884961 -1.4803215465 2.3262576645
N -3.2971210539 -0.7651325608 3.2663933523
C -2.3097546043 0.0616004470 3.7028094455
N -1.1383447294 -0.1002905371 3.0943055795
C 1.0479363665 -1.0842154687 -1.3935122087
C 1.6076310954 -0.2160271418 -2.3443349776
C 2.6483987393 -0.6179498857 -3.1765779242
C 3.1269706205 -1.9102725834 -3.0399256058
F 4.1467109122 -2.3123149215 -3.8415315404
C 2.6143616230 -2.8084293676 -2.1201664638
C 1.5709984341 -2.3827811870 -1.3008219110
C -0.1344783368 1.2917273689 0.1414803994
C -1.1847703176 2.2191103148 0.1013711445
C -1.0074544349 3.5385947296 0.5131196528
C 0.2445211674 3.9143502961 0.9673463056
F 0.4306493495 5.1973498919 1.3720692146
C 1.3185249891 3.0407665981 1.0255302254
C 1.1146766652 1.7289980380 0.6092886579
H -2.8715543455 -0.4396719498 -0.5625954682
H -2.1644187171 -1.7876711142 -1.4742616152
H -2.0682891637 -0.1353508054 -2.1149356610
H -0.6028952094 -2.6083636360 1.0354312822
H 0.5892678646 -1.5205678847 1.7626695577
H -3.1130830373 -2.2683924958 1.7225813684
H -2.4451614402 0.7955541689 4.4876368424
H 1.2324758846 0.7998565407 -2.4398133757
H 3.0839057745 0.0509547608 -3.9112651269
H 3.0237923060 -3.8104032071 -2.0485955120
H 1.1688865041 -3.0891446313 -0.5801732982
H -2.1662376333 1.9185792899 -0.2540014428
H -1.8169039395 4.2602064915 0.4834919461
H 2.2821340304 3.3837891766 1.3870542940
H 1.9519933963 1.0364329930 0.6515565719
