119
CONF816
C -10.0360240224 0.3577525484 -2.8799974040
C -10.4517355316 0.6128303478 -1.4323270363
C -11.5849420668 1.6386096405 -1.3629934090
C -9.2477785330 1.0937795820 -0.5966238522
C -9.6721852041 1.3069598346 0.8637386762
O -10.0656909863 0.3380815689 1.5254933293
N -9.5675892637 2.5383673825 1.4041281434
C -9.9163391359 2.7687354471 2.8233646188
C -9.4242939347 4.1793600874 3.0515432348
C -8.1884794741 4.4284128499 3.8728957501
C -9.5503150290 4.8646618659 4.3708783038
C -9.6139928177 4.8731565769 1.7219552681
C -9.1687356500 3.7852609254 0.7199944590
C -7.6932182322 3.8175168793 0.4420438886
N -7.0909822329 4.7115748863 -0.3287905786
C -5.7661308118 4.3518391006 -0.3399555773
C -5.5581353275 3.2198703074 0.4274708268
N -6.8082591849 2.9125187130 0.9304376645
C -4.3824118515 2.4003189304 0.6436156171
C -3.2663863221 2.5585120020 -0.2066381396
C -2.1819851934 1.7324190976 -0.0301983001
C -2.1467885848 0.7328071533 0.9566080938
C -3.2370038676 0.5751612839 1.8031116419
C -4.3399326735 1.4110293867 1.6424091188
C -0.8813011321 0.0015872399 0.8485423500
C -0.1353999159 0.5341055981 -0.2146194181
C -0.9114943852 1.6651530065 -0.8414476628
F -1.1699028519 1.4386892610 -2.1835814423
F -0.2082880549 2.8571491651 -0.8154133151
C 1.0942165870 0.0311995592 -0.5783800702
C 1.6283075360 -1.0509670418 0.1492308999
C 0.8845709066 -1.5715532528 1.2227242338
C -0.3629550866 -1.0623185853 1.5772314033
C 2.9397861073 -1.6243612533 -0.2115819463
C 3.9542101890 -0.7971277152 -0.7108222368
C 5.1620524833 -1.3961989078 -1.0358660338
C 5.4001028923 -2.7808437456 -0.8742912685
C 4.3839177706 -3.6014578101 -0.3839167327
C 3.1702397895 -3.0131543952 -0.0617849187
N 6.6981565294 -3.0887850484 -1.2430248751
C 7.2283931963 -1.9388682844 -1.6121186262
N 6.3523584409 -0.8901117891 -1.5122205396
C 8.6222421414 -1.7352051059 -2.1261031447
C 8.7416619953 -1.8890401750 -3.6682085645
C 10.1730515973 -1.4622379213 -4.0670061606
C 11.0578360198 -2.6420897881 -3.5520508561
C 10.0165745020 -3.5479586215 -2.8708568051
C 8.8112286808 -3.4181104658 -3.8071828074
N 9.5319115789 -2.8071031003 -1.6807997055
C 9.9210879007 -3.0826078128 -0.4235240988
O 10.6533419675 -4.0430708479 -0.1455392142
C 9.4434703267 -2.1575264326 0.7041659032
C 10.6640591183 -1.5073007064 1.3904259228
C 11.4837545800 -0.7224962570 0.3631575871
C 10.2178392718 -0.5988369702 2.5348669076
N 8.6430301404 -2.9652079900 1.6137544882
C 7.4133012462 -2.5772671767 2.0274750064
O 6.9138474160 -1.4746266905 1.8461508288
O 6.7967330134 -3.5852852904 2.7017856875
C 5.5058333967 -3.2444249326 3.2535794560
N -8.1630857164 0.1220705898 -0.5561241102
C -6.9930589527 0.2843822568 -1.2187680168
O -6.7268495806 1.1942465543 -1.9924818625
O -6.1358872314 -0.7256495941 -0.9087053117
C -4.8590613135 -0.6741329065 -1.5819941733
H -9.7011322423 1.2880160385 -3.3534186232
H -9.2240388152 -0.3723557947 -2.9447018823
H -10.8853635234 -0.0282114214 -3.4523657878
H -10.7969748351 -0.3292841532 -0.9860619555
H -11.2604719301 2.5994576173 -1.7804561963
H -12.4437586652 1.2930076639 -1.9459614359
H -11.9245441147 1.8080722627 -0.3354296084
H -8.8458099981 2.0044697258 -1.0490983569
H -11.0045440853 2.6884593104 2.9537577388
H -9.4321637148 2.0270971295 3.4648248966
H -7.7236710249 3.5755680669 4.3581689844
H -7.5046148338 5.2000650911 3.5321690023
H -9.7767421210 5.9263886737 4.3648492289
H -9.9904154684 4.3029956817 5.1893566909
H -10.6730598290 5.1002267805 1.5524012046
H -9.0306202950 5.7893122984 1.6151943771
H -9.6993884925 3.9001090575 -0.2303367888
H -5.0306543564 4.9146734498 -0.8981895827
H -7.0402986903 2.1288439712 1.5225275052
H -3.2800969031 3.2966905497 -1.0020278988
H -3.2400226868 -0.1856202785 2.5770954295
H -5.1827227798 1.2853485153 2.3144985956
H 1.6307166752 0.4432591380 -1.4273467392
H 1.3025178716 -2.3845570100 1.8074346288
H -0.9093939153 -1.4873620516 2.4131229308
H 3.8121338125 0.2737434697 -0.8094830502
H 4.5387954732 -4.6689400024 -0.2621811535
H 2.3620009386 -3.6417635170 0.2967819545
H 6.5586585464 0.0775560298 -1.7123117560
H 8.9777193236 -0.7423693748 -1.8230966991
H 7.9415838523 -1.3732412247 -4.2011648317
H 10.2422316887 -1.3592656019 -5.1532382845
H 10.4480857873 -0.5028291251 -3.6190149562
H 11.5386479941 -3.1763363087 -4.3770172864
H 11.8322751093 -2.3226993870 -2.8501686994
H 10.3501862035 -4.5480022102 -2.5993136863
H 9.0464731572 -3.7364654659 -4.8258598696
H 7.9225381656 -3.9362262277 -3.4412994615
H 8.7951035580 -1.3584293862 0.3368935841
H 11.2802517129 -2.3208920774 1.7948618861
H 12.3326694269 -0.2321851367 0.8489474535
H 11.8771578314 -1.3673035195 -0.4295626662
H 10.8672624504 0.0552962788 -0.1039448345
H 9.6230383998 0.2381207347 2.1509709368
H 11.0913539962 -0.1866376908 3.0498505335
H 9.6144301457 -1.1407814400 3.2688426360
H 8.9411087989 -3.9129949848 1.7956193917
H 4.8168891721 -2.9450343438 2.4592561427
H 5.1521410165 -4.1545694220 3.7378983669
H 5.6027998321 -2.4383104689 3.9857121541
H -8.2696247775 -0.6767304680 0.0530012236
H -4.3045979129 -1.5358561814 -1.2103700269
H -4.9927816953 -0.7458940371 -2.6645788666
H -4.3317577196 0.2502938766 -1.3328792014
