32
CONF10
C -3.4622977079 1.2545043724 2.6925893879
C -2.0953001700 0.6819951621 2.4149244445
O -2.1321014931 0.1106068146 1.0589843498
P -0.8268851267 -0.5387544567 0.4182681094
S 0.2059008454 -1.7712950591 1.5060934993
O -1.3605741595 -1.0476362249 -0.9930506071
C -1.7823843479 -2.4399466121 -1.2151373060
C -3.1160521121 -2.7265440307 -0.5671955158
O -0.0389673506 0.8275968721 -0.0234440287
C 1.2640359633 0.8764540728 -0.4649462460
C 1.8000460913 -0.0875526217 -1.3195682079
C 3.1077339280 0.0525346993 -1.7558780435
C 3.8484608690 1.1530323447 -1.3334540832
C 3.3153226754 2.1209486409 -0.4851628047
C 2.0109698356 1.9766575714 -0.0457951374
N 5.2270038763 1.2994589976 -1.7980456537
O 5.6849574676 0.4315647869 -2.5390560620
O 5.8628921336 2.2838436095 -1.4256465232
H -3.4688435074 1.6820217913 3.6995759564
H -3.7074399617 2.0446830315 1.9780348828
H -4.2269449707 0.4745846301 2.6418825562
H -1.3178178520 1.4525682177 2.4422182781
H -1.8368757826 -0.1200262677 3.1128745688
H -1.8329199097 -2.5193615024 -2.3023932596
H -0.9919437527 -3.0982560937 -0.8418454181
H -3.4286939370 -3.7392502530 -0.8407758725
H -3.8774294095 -2.0223382056 -0.9136641315
H -3.0498521801 -2.6736505189 0.5236377026
H 1.2040151730 -0.9297273007 -1.6504563993
H 3.5460658858 -0.6799834283 -2.4213897059
H 3.9144590981 2.9660511883 -0.1713901849
H 1.5614604866 2.7052157619 0.6192119369
