53
CONF15
C 2.0345224943 0.9025540881 -0.6891026641
C 0.5426428981 1.1827002481 -0.6136355931
N -0.2074802412 -0.0712948947 -0.4556365585
C 0.2371980911 -0.7213692834 0.7854026284
C 1.7281289380 -1.0078589762 0.7128179787
N 2.4917619371 0.2334061982 0.5339213194
C 3.9376301905 -0.0156699209 0.5163320527
C 4.5253757817 -0.1070246385 1.9165810225
O 4.4646381550 1.1833815138 2.5146555809
C 3.9342937905 1.2363694723 3.8370951072
C 2.4431422234 0.9134321123 3.8913633225
O 1.6961357124 1.6948074962 2.9794770283
C -1.6545080272 0.1867506465 -0.4407736029
C -2.4473765138 -1.0839676752 -0.1759371141
C -2.2186285482 -2.2396388953 -0.9261835069
C -2.9695001259 -3.3861589718 -0.6994737811
C -3.9664884479 -3.3915791172 0.2745301962
C -4.2001482645 -2.2446403113 1.0245672408
C -3.4403272382 -1.0988051545 0.8012564594
C -2.1233833629 0.7908038510 -1.7554399926
C -1.5810591729 0.3889512118 -2.9774552003
C -2.0620000669 0.9005721987 -4.1762967161
C -3.1019047644 1.8227920603 -4.1481652902
C -3.6586109878 2.2430993800 -2.9475358962
C -3.1595287442 1.7227018068 -1.7581755931
Cl -3.7154996312 2.4741616743 -5.6581883399
H 2.5744009627 1.8509380578 -0.7906270692
H 2.2433223943 0.2886848355 -1.5871411022
H 0.3412102076 1.8737753047 0.2289881674
H 0.2258621803 1.6801184533 -1.5351722598
H -0.2998041780 -1.6659819799 0.9094352219
H 0.0290748584 -0.0881105479 1.6697716005
H 1.9239287654 -1.7108600524 -0.1205786033
H 2.0429887412 -1.4958040998 1.6420831096
H 4.1865274720 -0.9309761251 -0.0546664818
H 4.4272551519 0.8253983393 0.0119796623
H 5.5764593051 -0.4282108771 1.8469972961
H 3.9952986616 -0.8566165086 2.5198698621
H 4.0928099672 2.2706206536 4.1582504134
H 4.4916224409 0.5683679050 4.5171262934
H 2.0782856731 1.1330611871 4.9027108155
H 2.2747497650 -0.1649018960 3.7214126881
H 1.9891175434 1.4001646627 2.0904753624
H -1.9109246316 0.9052501331 0.3639717298
H -1.4381575283 -2.2370554695 -1.6799656173
H -2.7797857428 -4.2795662726 -1.2861955925
H -4.5551671626 -4.2866259580 0.4475521230
H -4.9706724247 -2.2407015724 1.7890161651
H -3.6178771340 -0.2068493719 1.3960834968
H -0.7598691053 -0.3203523402 -2.9848938403
H -1.6352313833 0.5912366090 -5.1234489485
H -4.4640013406 2.9681693554 -2.9434201856
H -3.5904489410 2.0483513602 -0.8153417827
