46
CONF107
C -3.6796045106 -0.1824263283 -2.2120881025
C -3.3119182218 -0.7438106145 -0.8579492359
C -1.9389157185 -1.3321779156 -0.6199536369
C -2.3646591025 -0.0133490391 0.0755004723
C -1.6837333325 1.2474968701 -0.2689077502
O -1.4259883784 1.6716100974 -1.3795459859
O -1.3319069055 1.9043469645 0.8683254923
C -0.5381165060 3.0980775154 0.6798776697
C 0.8716874284 2.7928930741 0.2381569225
C 1.4245870526 1.5279476959 0.4263437439
C 2.7358474486 1.2871908458 0.0226399219
C 3.5058718759 2.2898619619 -0.5609849763
C 2.9427099281 3.5486009869 -0.7429071466
C 1.6323793880 3.8058219090 -0.3486844807
O 3.3201677720 0.0389038871 0.1152820039
C 2.8707802698 -0.8440335213 1.0879144494
C 2.8182680036 -0.4711366354 2.4290100491
C 2.4280181371 -1.4132670478 3.3754894479
C 2.1048111484 -2.7137450594 2.9881461505
C 2.1744826618 -3.0716223270 1.6440967658
C 2.5547776904 -2.1356209140 0.6842912640
C -0.8962597977 -1.3204261293 -1.6458167529
C -0.1203074743 -2.3594660160 -1.9551713779
Cl 1.1193403679 -2.2596282996 -3.1813133444
Cl -0.2338320784 -3.9286695407 -1.2054124581
C -4.4606451638 -1.4495674021 -0.1681262318
H -2.8429873952 0.2916919123 -2.7215785954
H -4.0603601798 -0.9954149057 -2.8396824513
H -4.4776491534 0.5595060006 -2.1011466274
H -1.9089832151 -2.1744703227 0.0642031656
H -2.5620521560 -0.1248711574 1.1361294116
H -0.5391767167 3.5764971034 1.6635397142
H -1.0295018488 3.7618108414 -0.0375190097
H 0.8385571331 0.7318360658 0.8718718723
H 4.5230513415 2.0738330753 -0.8699284616
H 3.5333143452 4.3354928520 -1.2016116497
H 1.1979404213 4.7890718152 -0.5032744785
H 3.0781544849 0.5410612569 2.7217233733
H 2.3854220121 -1.1301683422 4.4226337342
H 1.8041089011 -3.4442285983 3.7319514461
H 1.9273936746 -4.0820667590 1.3345277046
H 2.6132354887 -2.3968607337 -0.3672361495
H -0.7263787737 -0.4054339988 -2.2040940428
H -4.8177593057 -2.2770466851 -0.7904993179
H -5.2919348944 -0.7526191893 -0.0153930718
H -4.1622348604 -1.8514252381 0.8041941632
