51
CONF47
C -1.0331171258 -0.7091768270 1.2337244609
C 0.0791547818 0.1899924883 1.7611129829
N 0.3286517069 1.3085299687 0.8456811414
C -0.8838180338 2.1249284455 0.7045378831
C -2.0293575647 1.3009475808 0.1285286502
C -2.3275270914 0.1064308934 1.0305586063
C -3.4143872476 -0.7911633653 0.4740112511
O -3.7517510954 -0.7204896004 -0.7025064031
C -4.0391845301 -1.8102741619 1.3692817885
C -3.8768535874 -1.8027507419 2.7616015898
C -4.4883192559 -2.7654070870 3.5552077782
C -5.2558668966 -3.7358331927 2.9322113879
C -5.4413790953 -3.7839001817 1.5581701263
C -4.8292665848 -2.8106467265 0.7841774897
F -5.8507122582 -4.6789095734 3.6969299198
C 1.4673605887 2.1090358599 1.2932100510
C 2.0867004306 2.9420596285 0.1700830187
N 2.5546376990 2.0916210030 -0.9364761010
C 3.7593920981 1.4035046446 -0.7551059000
O 4.4244438304 1.5682731613 0.2640270788
C 4.1513921484 0.5013161752 -1.8381746917
C 5.3386968523 -0.2359214493 -1.7576189641
C 5.6970278481 -1.0954050538 -2.7810699752
C 4.8634110225 -1.2266891308 -3.8995129998
C 3.6840381684 -0.5077751275 -3.9983467220
C 3.3258712947 0.3625661121 -2.9619032965
N 2.1636682444 1.1020952393 -3.0236934818
C 1.7321778769 1.9826119138 -2.0626700325
O 0.7032817129 2.6325424535 -2.2043329163
H -0.7295881138 -1.1396640422 0.2708744206
H -1.1936456593 -1.5359992209 1.9330069100
H 1.0028859578 -0.3921655416 1.8596546748
H -0.1957727189 0.5510435397 2.7742058131
H -0.6695278445 2.9631458695 0.0353224674
H -1.1842051284 2.5467252240 1.6863059695
H -1.7574106948 0.9486106741 -0.8723413815
H -2.9199179617 1.9303621072 0.0245443373
H -3.2785552191 -1.0408476413 3.2474551206
H -4.3771003753 -2.7681136448 4.6337462685
H -6.0490182500 -4.5668654363 1.1179643341
H -4.9525033115 -2.8166857858 -0.2931008510
H 1.1958226587 2.8005719538 2.1144065021
H 2.2339781714 1.4315776392 1.6830415698
H 2.9468194783 3.4887837715 0.5632095657
H 1.3761106444 3.6557207201 -0.2459253037
H 6.6174233343 -1.6654069682 -2.7189976536
H 5.1416641747 -1.9007246406 -4.7034058496
H 3.0379707522 -0.6090284489 -4.8647616842
H 1.5684121627 1.0284876830 -3.8372902378
H -2.6453103476 0.4807399644 2.0135854377
H 5.9624413386 -0.1147215732 -0.8788457425
