18
CONF10
O -0.0107006353 -0.3370575781 1.6941950566
C -0.0030814370 -0.0978422837 0.5060230134
O -1.0798427395 0.0515865503 -0.2767825698
C -2.3590009100 -0.0980133483 0.4060563660
C -3.4375683949 0.1036574116 -0.6305646008
O 1.0836276338 0.0647525763 -0.2602602388
C 2.3540186244 -0.0646161087 0.4428296568
C 3.4454473812 0.1476804295 -0.5781506382
H -2.3990494970 -1.0960299959 0.8536402906
H -2.4138174673 0.6449931527 1.2078585668
H -3.3579312632 -0.6409364672 -1.4271606152
H -3.3726307343 1.1013782692 -1.0729593875
H -4.4172888583 -0.0010771428 -0.1555799268
H 2.4008776588 -1.0602556772 0.8950074043
H 2.3862169327 0.6822523397 1.2422508723
H 4.4191955220 0.0577467542 -0.0880998613
H 3.3876102047 -0.6009644216 -1.3728099193
H 3.3739180640 1.1427453389 -1.0254821704
