48
CONF23
C -2.1483424512 3.2750303650 -2.7044022717
O -3.2729246814 2.3882694210 -2.7714411351
C -3.3435265181 1.3957271222 -1.8443405344
C -2.4223995555 1.1948511763 -0.8375539905
C -2.5848902847 0.1243114962 0.0786115839
C -1.6753813719 -0.1586553928 1.1371292264
C -1.9645577799 -1.2206272272 1.9694233780
C -3.1130902085 -1.9992576067 1.7552502255
N -3.9749910881 -1.7812658910 0.7779312499
C -3.7255172096 -0.7341806794 -0.0536658430
C -4.6492024576 -0.4909773670 -1.1023447111
C -4.4668437723 0.5420902659 -1.9786432409
C -0.4068208369 0.6324478595 1.3848551403
C 0.8363878613 -0.1695543791 0.9708703365
C 2.1622450528 0.5569258473 1.3034150115
C 3.1660812165 0.2450617524 0.1821418467
C 2.6924684181 0.9592794624 -1.0884999000
C 1.2076694327 0.5707396192 -1.3190478843
N 0.7953564014 -0.5579755822 -0.4538485773
C 1.7613435223 -1.6555912247 -0.6368031796
C 3.1974319882 -1.2726230180 -0.1270962623
C 3.6263032597 -2.1016277830 1.0415440228
C 4.7469836414 -2.8221281275 1.0897161210
O -0.2292674062 0.8985910205 2.7851192359
H -2.1371569451 3.8219021680 -1.7541319899
H -1.2086428450 2.7225580454 -2.8246361530
H -2.2734974133 3.9749779481 -3.5305959124
H -1.5744827938 1.8563230804 -0.7407175957
H -1.3039392889 -1.4596001738 2.7962162425
H -3.3244077020 -2.8383844285 2.4170726664
H -5.5063585336 -1.1507785708 -1.1906071704
H -5.1698520148 0.7317013596 -2.7834332792
H -0.4271084770 1.5844937855 0.8407501831
H 0.7836809868 -1.1053839228 1.5442863745
H 2.5373987539 0.2440498510 2.2820427237
H 2.0066617024 1.6422502523 1.3522503081
H 4.1697128879 0.5802980324 0.4631841246
H 3.3158438094 0.6596733448 -1.9388555516
H 2.7928708780 2.0438868392 -0.9708924828
H 0.5540478960 1.4236575930 -1.1167158400
H 1.0310511976 0.2756183167 -2.3593516444
H 1.7956192421 -1.9060718155 -1.7029834629
H 1.3903669125 -2.5369167490 -0.1001482540
H 3.9211389221 -1.4285877483 -0.9365805641
H 2.9559972538 -2.1140195948 1.9025522894
H 5.4388949627 -2.8434335775 0.2501340915
H 5.0073636086 -3.4110606428 1.9642773366
H -0.9897199824 1.4139853510 3.0830029100
