56
CONF1
C -2.9135052848 0.8783229635 -1.2448750426
C -2.5657763563 -0.2768663057 -0.2719590987
C -3.0062072838 -1.6255940174 -0.8751359734
C -4.5178821155 -1.8291980062 -0.8678130469
C -5.0786720855 -1.6982376983 0.5319798418
O -6.0577680293 -2.3259779186 0.9086596117
C -4.4195425927 -0.7054000591 1.3843123262
C -3.3272634309 -0.0066796309 1.0168247005
C -2.8391142981 1.1471463690 1.8399279089
C -1.3445687162 1.0490106156 2.1466843232
C -0.5045396078 0.8398311392 0.8848076883
C -1.0415157353 -0.3737327810 0.0933474593
C -0.1356715066 -0.7938185405 -1.0787987604
C 1.3451398342 -0.9292641644 -0.6760058141
C 1.8774346318 0.2866656639 0.0771801677
C 0.9454252303 0.5618004579 1.2732183435
C 1.7145366751 1.5859400185 2.1145731674
C 3.2035514550 1.1835689958 1.9273761230
C 3.2335155003 0.0577355797 0.8627365275
C 4.4438031193 0.1195038276 -0.0543038602
O 4.9437821942 1.1750450612 -0.4004670740
C 5.0132838952 -1.1809878413 -0.5790249036
O 5.9945628014 -0.9571401105 -1.5592075541
O 3.2910798011 -1.2455169674 1.4597598970
C 2.0167545973 1.5128966956 -0.8383159505
O -0.3134852645 0.1390182825 -2.1558872954
H -2.6236361473 0.6249445444 -2.2637079741
H -2.3999670398 1.8049238448 -0.9804336189
H -3.9898270362 1.0754874740 -1.2171087439
H -2.5500972934 -2.4369162170 -0.2908228266
H -2.6245388721 -1.7081077440 -1.8980057701
H -4.8000357675 -2.8060086501 -1.2695630518
H -5.0141215566 -1.0708860053 -1.4892683805
H -4.9203384495 -0.4902476421 2.3257312965
H -3.4223279061 1.2215728384 2.7626973676
H -3.0220545606 2.0714082324 1.2726801142
H -1.1750005961 0.2004804940 2.8256433643
H -1.0160582587 1.9511533051 2.6743868647
H -0.5536214746 1.7459027725 0.2668289479
H -0.9803204095 -1.2241708546 0.7946262805
H -0.4625731994 -1.7893959888 -1.4164819288
H 1.9311820866 -1.1265607312 -1.5854769032
H 1.4481679202 -1.8191926434 -0.0439496276
H 0.8969307711 -0.3761114495 1.8567983494
H 1.5312007627 2.5988312004 1.7401760895
H 1.4153268878 1.5721214849 3.1657656763
H 3.8128094047 2.0243107060 1.5896275595
H 3.6576662234 0.8051778018 2.8477824495
H 4.1945399269 -1.7997107113 -0.9767205670
H 5.4174117890 -1.7363827907 0.2828834636
H 6.1463123557 0.0026587784 -1.5631684901
H 2.6319773717 -1.2871177323 2.1606028954
H 2.5976201232 1.2581757551 -1.7301961371
H 2.5400556753 2.3366378330 -0.3495593425
H 1.0393864804 1.8589969763 -1.1730964962
H 0.3365734612 -0.0700467160 -2.8363651688
