46
CONF16
C -3.8954335646 -1.5770665717 1.0164535546
C -2.4933452980 -2.0302657632 1.3507833510
C -1.3930847375 -1.9438267397 0.3176588067
C -1.3703342157 -1.0322225272 1.5709136607
C -1.5293877806 0.4251469156 1.4191408220
O -2.3269418220 1.0139721964 0.7150389079
O -0.6050734910 1.0697704092 2.1811193276
C -0.5407586007 2.5025903587 2.0014535075
C 0.0760562955 2.8880628491 0.6792448018
C 0.8425057824 1.9771046052 -0.0447242118
C 1.4126264680 2.3696848174 -1.2535051691
C 1.2354462604 3.6597435220 -1.7475661799
C 0.4695870261 4.5599314829 -1.0148797418
C -0.1116812985 4.1827546814 0.1929369412
O 2.1262277626 1.4994586921 -2.0529556240
C 2.7189494759 0.3876020398 -1.4687315939
C 3.6364280738 0.5310030203 -0.4307831220
C 4.2578255884 -0.6035789648 0.0809508599
C 3.9730071756 -1.8634764321 -0.4453603052
C 3.0610588732 -1.9863135480 -1.4905513943
C 2.4240692706 -0.8591278068 -2.0061860030
C -1.6091843751 -1.3697255310 -1.0111274213
C -1.1989908791 -1.9213954956 -2.1532367874
Cl -1.4674899306 -1.1619195896 -3.7017041578
Cl -0.3602216293 -3.4458077696 -2.2620536481
C -2.4510287763 -3.2403625879 2.2602142662
H -3.9198485146 -0.7163045725 0.3506378601
H -4.4334870843 -2.4055510181 0.5433994650
H -4.4261687132 -1.3118002834 1.9370398548
H -0.6524131596 -2.7362554410 0.3641060827
H -0.6221794020 -1.3140839928 2.3037736706
H 0.0800269739 2.8488730756 2.8328388101
H -1.5402953535 2.9361090371 2.0995731186
H 0.9856591474 0.9665160012 0.3206878261
H 1.6872694071 3.9376072804 -2.6937657451
H 0.3213282542 5.5659552911 -1.3947584697
H -0.7164696451 4.8901237726 0.7525959704
H 3.8545237850 1.5170735974 -0.0332538206
H 4.9747487035 -0.5001238602 0.8894764147
H 4.4639843042 -2.7440659028 -0.0443362318
H 2.8370673694 -2.9628282058 -1.9075268882
H 1.7087125693 -0.9351279267 -2.8184386076
H -2.1357581528 -0.4242085211 -1.0899779475
H -2.9516819773 -3.0160978675 3.2084485573
H -1.4236927903 -3.5472010897 2.4753481971
H -2.9721560731 -4.0803456423 1.7886120485
