47
CONF125
C -0.6538913317 0.6515161378 3.6263506651
C -0.4187280725 1.6372193485 2.4813091059
C -1.0040511052 1.1785235588 1.1415556542
C -2.5223064222 1.1342330135 1.1509327814
O -3.0071773782 0.6760646990 -0.1518151715
C -3.1449860327 1.5941567098 -1.1110310396
O -3.0297886176 2.7939784446 -0.9624895014
C -3.5301921541 0.9656513270 -2.4523561133
C -5.0421177332 0.8373257580 -2.5516175864
O -2.9879967506 -0.3507430682 -2.6106926239
C -1.6277697279 -0.4928842783 -2.5060074840
C -1.1723297932 -1.7938480506 -2.2759417387
C 0.1847010159 -2.0373132890 -2.1183545273
C 1.0758835748 -0.9750605070 -2.1901363525
C 0.6425180068 0.3134928462 -2.4480158333
C -0.7189915677 0.5624651498 -2.6093446855
O 2.4504039993 -1.2237906754 -2.0546145063
C 2.9966828330 -1.0971708268 -0.8152393853
C 4.3801339747 -1.3075728485 -0.7237461402
C 4.9615844058 -1.1835106449 0.5183721235
C 4.1545636732 -0.8613347344 1.6181318963
C 2.7953604409 -0.6772685724 1.4167760819
N 2.2192575507 -0.7931165799 0.2128381641
C 4.7732655365 -0.7066874937 2.9668067533
F 3.8572120790 -0.5169763615 3.9424196191
F 5.6276426498 0.3532985934 3.0162472801
F 5.5087871021 -1.7961353104 3.3165581629
H -0.2731129515 -0.3425080885 3.3642987033
H -0.1395991401 0.9800859069 4.5347436692
H -1.7166949858 0.5504742330 3.8677084309
H -0.8325115228 2.6199528315 2.7417815985
H 0.6596678993 1.7810977563 2.3462508393
H -0.6795765849 1.8601949742 0.3467312722
H -0.6194782587 0.1812252290 0.8923196458
H -2.9566404733 2.1133044530 1.3720062370
H -2.9116161475 0.3931050481 1.8507352927
H -3.1598115544 1.6342842268 -3.2387637123
H -5.3076368478 0.4243751580 -3.5278597624
H -5.5036821580 1.8226312830 -2.4496996261
H -5.4218331576 0.1791772033 -1.7655752213
H -1.8931407483 -2.6015453066 -2.2046040024
H 0.5502455932 -3.0395679545 -1.9204870030
H 1.3604412048 1.1248747227 -2.5082298126
H -1.0446018639 1.5767816634 -2.8066654317
H 4.9566443762 -1.5560694923 -1.6068085155
H 6.0294774668 -1.3344702840 0.6409308566
H 2.1357887093 -0.4291160191 2.2442902445
