27
CONF116
C -3.0100434057 0.2710188654 0.0317186839
C -4.1398709186 -0.3899472937 0.8277741782
O -4.4051724432 -1.7412477490 0.4556150004
C -1.6402146512 -0.2901028247 0.3340177995
C -0.4920083807 0.4559844726 -0.4176509511
C 0.9593953778 0.1211421864 0.0768368361
C 2.0726801635 0.4819432715 -0.9608195583
C 3.5459042768 0.5734951592 -0.4177697851
C 4.1223153434 -0.6620152849 0.3400154573
F 3.9392214485 -1.7825015317 -0.3696785743
F 3.5372426300 -0.7989284111 1.5365453333
F 5.4354416081 -0.4764760790 0.5266181436
F 3.6523632322 1.6457283111 0.3955814732
F 4.3277461340 0.7765626703 -1.5059004371
F 2.0554637604 -0.4334318960 -1.9543327590
F 1.8005231669 1.7021591382 -1.4858002634
F 1.1899963628 0.8103609051 1.2186911103
F 1.0609741925 -1.2039346407 0.3390876376
F -0.5902673655 0.1526831981 -1.7383492727
F -0.6709993933 1.7931210961 -0.2720683929
F -1.5515481087 -1.6117915088 -0.0076099918
F -1.3622771520 -0.2047948981 1.6778495372
H -3.1937694648 0.1777611907 -1.0443238511
H -2.9964513604 1.3375525657 0.2764044651
H -3.8921787367 -0.4074636641 1.8928386100
H -5.0344775295 0.2342897028 0.7019986826
H -4.7199891889 -1.7417905433 -0.4572890055
