22
CONF4
C 4.1594568100 1.5136322782 -0.0905892029
C 3.2587683211 2.0414733345 -1.0096226454
C 1.9413707587 1.6004267819 -1.0124329766
C 1.4912113530 0.6308660642 -0.1140389934
C 2.3994313007 0.1106096350 0.8122807502
C 3.7134944805 0.5550856901 0.8096865400
Br 4.9402512895 -0.1751867979 2.0833622097
C 0.0888437011 0.1499508391 -0.0963399117
C -0.8143776328 0.7092316539 0.8067218233
C -2.1352828552 0.2788788057 0.8626194480
C -2.5706115393 -0.7326667785 0.0066500982
C -1.6837646033 -1.3105014854 -0.8969730870
C -0.3698287189 -0.8664365812 -0.9367525173
Br 0.8208802753 -1.6912610958 -2.1783134297
Br -4.3588631670 -1.3748024978 0.0257501630
Br -3.2926951906 1.1060062316 2.1231601959
Br 0.7286815682 2.3569104828 -2.2822882524
H 5.1885146772 1.8526984460 -0.0826763747
H 3.5871464794 2.7946848773 -1.7160903474
H 2.0662063177 -0.6417685343 1.5178771251
H -0.4778487003 1.4981478587 1.4698540344
H -2.0198184815 -2.1000207107 -1.5571252958
