53
CONF30
C 1.9972653035 -2.4201787376 3.4845240035
N 2.6325612770 -2.0792856198 2.2084029314
C 3.8835125383 -2.8489585774 2.0853195100
C 4.6398094400 -2.5122904345 0.8079949072
C 3.7552254531 -2.7697711844 -0.4083116476
C 2.4491515888 -1.9988358306 -0.2483441811
C 1.7398810995 -2.3540885475 1.0625708278
C 0.3872218511 -1.6338492888 1.1909895860
C 0.4783537341 -0.1239043471 1.4468742007
N 0.7264306710 0.6555387590 0.2251730227
C 1.6260992146 1.7398071797 0.2704135561
C 1.9643853027 2.3791420899 1.4700596724
C 2.8944896899 3.4155583887 1.4837270751
C 3.4744847284 3.8650414439 0.3022785676
C 3.1105818882 3.2729519860 -0.9044710155
C 2.2106149043 2.2121460135 -0.9159247648
S 1.8362674123 1.3952132612 -2.4529386530
C 0.1477370262 0.9685723759 -2.1198971324
C -0.2182585856 0.6120778289 -0.8065794925
C -1.5348351776 0.1925578594 -0.5831549989
C -2.4186968680 0.1088551992 -1.6535289584
C -2.0638864664 0.4622106357 -2.9490273868
C -0.7672976760 0.9162032568 -3.1674973660
S -4.0884348355 -0.4730269254 -1.3328990060
O -4.6272890242 -1.0429019118 -2.5889039410
O -4.0584094342 -1.3185507361 -0.1168896583
C -5.0171558790 1.0257098334 -0.9529640320
H 1.6212173669 -3.4612478822 3.5055070891
H 1.1604287617 -1.7509878007 3.7031074035
H 2.7298598452 -2.3078175343 4.2899873361
H 4.5029640892 -2.6261978407 2.9621450884
H 3.6711983044 -3.9387153830 2.1038724676
H 5.5560594699 -3.1124319106 0.7651506446
H 4.9380575254 -1.4558086770 0.8311713668
H 4.2644182304 -2.4743572564 -1.3326830300
H 3.5422780928 -3.8454503974 -0.4830161033
H 1.7666325969 -2.2032861098 -1.0820276381
H 2.6609009792 -0.9235840044 -0.2618397599
H 1.5096058074 -3.4419172087 1.0356191872
H -0.1926528004 -2.0734368059 2.0086051952
H -0.1822448821 -1.8421441127 0.2796928681
H 1.3275366356 0.0480728671 2.1095708231
H -0.4195437250 0.2367269874 1.9689997448
H 3.1505498503 3.8816278809 2.4297365557
H 3.5394232406 3.6185419732 -1.8400472383
H -1.8697159545 -0.0911673447 0.4065149216
H -2.7705931641 0.3799117465 -3.7663236953
H -0.4526227624 1.2019731923 -4.1660695640
H -6.0438828150 0.7094473182 -0.7482958918
H -4.5686786490 1.4955818217 -0.0749807656
H -4.9760986963 1.6856352310 -1.8222305541
H 1.4988091523 2.0750726300 2.3996462968
H 4.1947579766 4.6759160299 0.3117999684
