48
CONF25
Cl -3.3497828188 0.2878484143 4.3878514067
C -3.3677385229 -0.6445191895 2.8925574684
C -4.1342736967 -1.7962825046 2.8244995899
C -4.1025778687 -2.5170794126 1.6307585754
C -3.3360098636 -2.1005848607 0.5551315937
C -2.5578891955 -0.9322468801 0.6380290803
C -2.5860711143 -0.1992713652 1.8348399265
N -1.7905241703 -0.5222589068 -0.4676087445
C -0.8428640914 -1.5398012503 -0.9575097233
C -0.1595125625 -1.0932909844 -2.2374727832
N 0.5177581305 0.1830422998 -2.0300445335
C 1.2997160078 0.5726031351 -3.2048922467
C 2.3542061002 1.6408807697 -2.9140400087
C 3.5030915007 1.1683452421 -2.0179430233
N 3.0857868396 0.8646995257 -0.6634384717
N 2.6183909953 1.8740152337 0.1497197833
C 2.0889204850 1.2401037811 1.1723465373
C 1.4365746567 1.7351562700 2.3284218401
C 0.9002642543 0.8409948713 3.2111437988
C 1.0012755557 -0.5696979052 2.9975478579
C 1.6520712266 -1.0443996203 1.9044909058
N 2.1922237021 -0.1451153713 1.0250380041
C 2.8062114362 -0.4062753610 -0.2189361238
O 3.0248673337 -1.4955738948 -0.7242121186
C -0.4740164609 1.1853814876 -1.6533865217
C -1.1535247125 0.7882537144 -0.3524942478
H -4.7366711085 -2.1157983052 3.6654463030
H -4.7043606276 -3.4157493753 1.5392572600
H -3.3615179723 -2.6644407309 -0.3701309198
H -1.9872201763 0.6911585824 1.9661811470
H -0.0710268974 -1.7409039781 -0.1937794561
H -1.3758620442 -2.4741315485 -1.1467120858
H 0.5878162492 -1.8489844949 -2.5049396589
H -0.9067366854 -1.0326432541 -3.0557855551
H 1.8118224602 -0.3270994226 -3.5700047423
H 0.6421151627 0.9222881612 -4.0270356618
H 1.9032772876 2.5375409054 -2.4757302873
H 2.7930654226 1.9516417034 -3.8700477705
H 4.2796525262 1.9395685643 -1.9680064732
H 3.9493344859 0.2488749165 -2.4115329301
H 1.3635855024 2.8071524394 2.4666811474
H 0.3765377773 1.2002396044 4.0903680640
H 0.5568975732 -1.2631026566 3.6997078222
H 1.7906733713 -2.0894623866 1.6522325376
H -1.2367879122 1.3204205518 -2.4482022708
H 0.0205376342 2.1487277487 -1.4898855280
H -1.9225096907 1.5307284847 -0.1111560523
H -0.3991949077 0.8034869747 0.4526777656
