65
CONF230
C -3.6012409005 2.6462123054 -3.2811841013
C -2.9518129071 1.3115767795 -3.6404962393
C -2.4850655122 0.5256811856 -2.4107446561
C -1.8999958098 -0.8418952430 -2.7960034127
C -1.4193255599 1.2942009679 -1.6586581717
O -0.4569061732 1.8284596927 -2.1790301646
O -1.6413304533 1.2752578132 -0.3314720131
C -0.6589777626 1.9259114454 0.5367584179
C -1.0544161244 3.3783832850 0.7427883700
C -0.0264016051 4.0922895659 1.6335339871
C 0.3395802851 3.2399880960 2.8123421012
C 0.0666291375 1.9258207719 2.9232074577
C -0.6678227961 1.1525072606 1.8444971328
C -0.0930371238 -0.2780305605 1.7269135867
C -0.3373228195 -0.9830478122 3.0788427562
C 0.2522541959 -0.1650780899 4.1970918624
C 0.4491560127 1.1609023800 4.1001260508
C 0.1409522390 -2.4363742303 3.1192283798
C 1.3925554488 -0.2599635937 1.2956235851
C 1.6410099631 -0.6934612666 -0.1535513906
C 1.4054644150 -2.1669997947 -0.4300254976
C 1.5967664161 -2.5395750416 -1.8859213546
C 1.4519423179 -4.0424732810 -2.0476499837
C 2.5273179961 -4.7295204599 -1.2125578140
C 2.7589279814 -4.1510857145 0.1649279908
O 3.3813843468 -4.7513290674 1.0212202372
O 2.3361224318 -2.9067517831 0.4428068201
O 1.5098806515 -4.4666896478 -3.4126039644
C 1.2308314283 4.5151427010 0.8523895172
H -4.4643714540 2.4951426738 -2.6239001115
H -2.8943312225 3.3042182424 -2.7631275723
H -3.9461891986 3.1696681632 -4.1777660652
H -3.6655088038 0.6833902054 -4.1863653809
H -2.0937732806 1.4717918756 -4.3039990323
H -3.3329355031 0.3735255445 -1.7339778593
H -1.5622588054 -1.3937907540 -1.9125690803
H -2.6624391901 -1.4388313143 -3.3048790998
H -1.0502417789 -0.7132135407 -3.4738537912
H 0.3182117783 1.8631484568 0.0501517538
H -1.1339992180 3.8842839606 -0.2253942614
H -2.0414925245 3.4018311257 1.2205013954
H -0.4921153111 5.0123809222 2.0136552806
H 0.8762139785 3.7315918865 3.6239275033
H -1.7192232415 1.0580886616 2.1594244475
H -0.6826036175 -0.8097291077 0.9688197747
H -1.4303472130 -1.0081221663 3.2213020323
H 0.5319848956 -0.6863937598 5.1110995955
H 0.9041782814 1.7092342237 4.9229735350
H -0.2869467974 -3.0062873216 2.2876303807
H 1.2304264996 -2.5115533069 3.0562482281
H -0.1729591777 -2.9094529105 4.0554630480
H 1.7943394394 0.7531086967 1.4186350122
H 1.9913569901 -0.8912658099 1.9577472253
H 0.9868710138 -0.1360609245 -0.8361469327
H 2.6728273599 -0.4550981298 -0.4409203402
H 0.4000810049 -2.4645623675 -0.1032358887
H 2.5889050982 -2.2158184830 -2.2306806250
H 0.8388907710 -2.0188008355 -2.4783296540
H 0.4578289378 -4.3480774046 -1.6995426778
H 3.4927105477 -4.6196530182 -1.7290050001
H 2.3445902280 -5.8014691674 -1.1024498483
H 2.3725733367 -4.2101876591 -3.7670857603
H 0.9658496950 5.2101701388 0.0488600322
H 1.7284702436 3.6455661139 0.4105985852
H 1.9483056296 5.0111674154 1.5137914876
