60
CONF82
C 7.1301630424 -1.2498922552 3.5274879747
C 6.3391943888 0.0561659328 3.5476083374
N 5.5143540936 0.2665320034 2.3562060796
C 6.1829870381 0.6640401091 1.1179895161
C 6.3776651316 -0.4620892328 0.0980763010
C 4.1947297904 -0.1404074128 2.4256994250
O 3.7254211191 -0.6846336128 3.4208862700
N 3.4416722097 0.1401876656 1.2947126888
C 2.0982483227 -0.1854288527 1.0490995744
C 1.5697261662 0.1900542624 -0.1855913318
C 0.2576607918 -0.1022058844 -0.5544559010
C -0.5762381872 -0.7491748982 0.3772527695
C -0.0505527879 -1.1363619442 1.6094010884
C 1.2717906353 -0.8703952095 1.9469788694
O -1.8895425440 -0.9021269672 0.0351768524
C -2.7158745370 -1.7307083582 0.8590000249
C -4.1094130198 -1.7981792265 0.2449163226
C -4.8274204049 -0.4376077785 0.1737806563
N -4.3207800114 0.3447565251 -0.9552742441
C -5.1893832780 1.4287647594 -1.4749959338
C -6.3969386635 0.8143635411 -2.1897529430
C -4.3441850901 2.2012087553 -2.4917922086
C -5.6614500955 2.3848138920 -0.3675509352
O -4.0885067045 -2.4123965373 -1.0312526542
C -0.1384570900 0.2715599387 -1.9505564763
O 0.4424352358 1.1823648245 -2.5204032062
C -1.1902612434 -0.5342704136 -2.6744959063
H 7.6783846912 -1.3706795146 4.4673050039
H 7.8598387319 -1.2687978077 2.7120044036
H 6.4519411453 -2.1001122745 3.4129363904
H 7.0196397793 0.9125263708 3.6373981954
H 5.6698384212 0.0677665633 4.4099466317
H 5.6581411406 1.5136767195 0.6538624277
H 7.1614963215 1.0624161860 1.4055886913
H 5.4241219145 -0.8900696728 -0.2231785615
H 6.9769466400 -1.2707417061 0.5229603895
H 6.8938688879 -0.0781598928 -0.7877440779
H 3.8787004324 0.6659790554 0.5570022757
H 2.1800493573 0.7106124511 -0.9192048523
H -0.6691903943 -1.6452889432 2.3378987234
H -2.2861072975 -2.7404031876 0.9128608563
H -2.7851964658 -1.3136060556 1.8754956903
H -4.6921271495 -2.4486887197 0.9138664776
H -5.8890326008 -0.6435584210 0.0051502818
H -4.7426477928 0.0723250138 1.1487262784
H -3.4217499377 0.7392280788 -0.6971821628
H -6.9850963327 1.6007674753 -2.6723867616
H -7.0624039500 0.2885735625 -1.4989557561
H -6.0659786760 0.1057901945 -2.9548480540
H -3.4580492761 2.6395016289 -2.0173638263
H -4.9253035234 3.0168075703 -2.9313256744
H -4.0105077829 1.5400101853 -3.2974755198
H -6.2513691300 3.2044871016 -0.7905291711
H -4.8052061737 2.8206492173 0.1595439403
H -6.2896501493 1.8680184459 0.3649298807
H -3.9941000625 -1.6696076474 -1.6530956414
H -1.0075285750 -0.4423504699 -3.7468338499
H -2.1852069449 -0.1322801001 -2.4537967180
H -1.1980300227 -1.5809435029 -2.3618251593
H 1.6619266961 -1.1785375616 2.9060050683
