28
CONF12
C 1.2952236263 1.1645713841 -0.5210572710
N 0.2512080013 1.9494261240 0.1276434434
C -1.0995840478 1.4058719568 0.3990395749
N -1.3503105315 0.2403548104 -0.4186158055
C -1.4662709185 -1.0891392690 0.1364459922
N -0.3155336927 -1.9264329048 -0.2761789963
C 0.9294494989 -1.3558185704 -0.7797827499
N 1.3925523615 -0.2005767095 -0.0253343470
N 1.9102980761 -0.4052314956 1.2386916908
O 2.2675896160 0.5909904118 1.8554139151
O 1.9471621185 -1.5627944074 1.6378428501
N -0.2931692097 -3.1846807649 0.2861169506
O 0.6542084676 -3.9179311285 0.0368864884
O -1.2750432076 -3.4837272898 0.9642550858
N -1.8305664560 0.4474137997 -1.7168291827
O -1.8411290496 1.6012862551 -2.1162891297
O -2.1550730466 -0.5491146781 -2.3433703633
N 0.6131517668 3.0122715673 0.9259462426
O 1.7355782190 3.4824593212 0.7973685208
O -0.2617631053 3.4354084723 1.6804518238
H 2.2355457708 1.6992008767 -0.3795309283
H 1.0889804948 1.0892166105 -1.5919164861
H -1.8390611786 2.1829744817 0.1938767565
H -1.1788167865 1.1023130270 1.4472597100
H -2.3877938053 -1.5654444576 -0.2049987154
H -1.4912906743 -0.9954184750 1.2261137389
H 1.6750555712 -2.1520734003 -0.7702647245
H 0.7894017137 -1.0153754366 -1.8091840891
