45
CONF11
C -2.3303860293 -3.1820959630 -4.7869224299
C -2.9793512951 -2.1795067571 -3.8887594528
C -2.4202589206 -1.6730555673 -2.7865169857
C -3.1061221602 -0.7009945459 -1.9216039125
C -2.3688069277 0.4722962193 -1.2401396074
C -2.9660418765 -0.6751291577 -0.4246280619
C -2.0666486894 -1.6649058505 0.2773386938
C -4.2019078628 -0.3114694164 0.3697057365
C -0.9151117007 0.6473798988 -1.3822398387
O -0.0723923490 -0.2087556861 -1.5479802200
O -0.6023282226 1.9762295765 -1.2914654415
C 0.8107586103 2.2773817837 -1.3696699013
C 1.5438400482 1.8247913139 -0.1388792106
C 2.5507146332 0.8655514243 -0.1842967054
C 3.1842462526 0.4324387738 0.9731234647
C 2.8396941418 0.9296460500 2.2248828708
C 1.8437115436 1.9000774630 2.2665857982
C 1.2139030521 2.3391627247 1.1120690569
F 0.2632464220 3.2827617984 1.2075984406
F 1.4805421982 2.4307707073 3.4451598495
C 3.5569006291 0.4951455940 3.4669872945
O 4.6520372366 1.3817707817 3.6713220351
C 5.3820317365 1.0390248929 4.8405101542
F 4.1497277856 -0.4941513417 0.8687197706
F 2.9357889398 0.3488252653 -1.3571761385
H -2.9265198457 -4.1005445087 -4.8513182279
H -1.3308030899 -3.4458634047 -4.4310598036
H -2.2395492636 -2.7949530034 -5.8090597682
H -3.9808737717 -1.8515557679 -4.1716171745
H -1.4174290579 -1.9808175593 -2.5064752095
H -4.0866176368 -0.4057207335 -2.2910364160
H -2.9149320335 1.4083962146 -1.1972509022
H -1.1507128291 -1.8713021302 -0.2744411358
H -2.6080278116 -2.6061672379 0.4225851133
H -1.7879047582 -1.2801235706 1.2645954590
H -4.7956300022 -1.2097628048 0.5726362250
H -4.8345015151 0.3991170363 -0.1702902010
H -3.9262131389 0.1375819597 1.3303598773
H 1.2431321881 1.8117315117 -2.2574164592
H 0.8448306146 3.3650477779 -1.4597813026
H 3.9144280465 -0.5388160315 3.3499636826
H 2.8692660189 0.5295850729 4.3258048895
H 5.8001705283 0.0229274548 4.7694122154
H 6.1996722604 1.7573189647 4.9269817820
H 4.7504286956 1.1007304660 5.7403492022
