40
CONF62
C 3.7363818620 0.4439865357 -1.8457172777
C 2.4441805683 -0.2403166848 -1.4658823355
O 2.1662632497 -0.0478595873 -0.0431393050
P 1.2989363309 1.1657759966 0.5084496383
S 0.6597333175 2.5247761952 -0.7121587311
O 2.2445992632 1.6318589427 1.7093772670
C 1.8487246114 2.7499053406 2.5640266083
C 2.9912058562 3.0104735324 3.5156042873
O 0.1281211721 0.4335223399 1.4242948146
C -0.9345279777 -0.2277158933 0.8795723381
C -2.0123605211 -0.4991968916 1.7172798520
C -3.0701180284 -1.1889397092 1.1430653732
N -3.0477964659 -1.5578745573 -0.1547728161
C -1.9632822001 -1.2410277312 -0.8621479193
N -0.8845347073 -0.5898841827 -0.3880909698
C -1.9244805701 -1.6357205180 -2.3179724538
C -1.7880415074 -0.3932741083 -3.2065971782
C -0.7847704157 -2.6287943193 -2.5764734531
C -4.2944204392 -1.5519627668 1.9222915606
H 3.6510868110 1.5270608097 -1.7206240025
H 3.9601343828 0.2342694580 -2.8967643365
H 4.5649319470 0.0776766413 -1.2334273769
H 2.5063104931 -1.3249475016 -1.5814073543
H 1.5953518893 0.1323491757 -2.0464677512
H 1.6424810242 3.6165661845 1.9270581154
H 0.9333234766 2.4709144118 3.0978083275
H 3.8985865341 3.2751078314 2.9663716279
H 3.1939037835 2.1301932088 4.1312519062
H 2.7282885272 3.8432904545 4.1746585460
H -2.0131464620 -0.1837278480 2.7531850911
H -2.8796272564 -2.1264035478 -2.5301861781
H -2.6096658925 0.3088407941 -3.0343785197
H -1.7992085897 -0.6853118008 -4.2613749432
H -0.8477089170 0.1268641089 -2.9986517765
H -0.7918605536 -2.9413673498 -3.6253810974
H 0.1816477619 -2.1635776014 -2.3609760589
H -0.8857659041 -3.5210896523 -1.9506916665
H -5.1737429203 -1.0827578503 1.4695131629
H -4.4519823838 -2.6342173787 1.8815222902
H -4.2171523405 -1.2374644654 2.9646576824
