53
CONF140
C 2.5184257679 -1.8607720231 -0.0546599861
N 2.9005895782 -0.4505920525 -0.1547171345
C 4.3348707168 -0.3827645137 -0.4720827760
C 4.8391807635 1.0495699474 -0.5600689784
C 4.0513965780 1.8094587212 -1.6214844858
C 2.5630253376 1.7138794548 -1.3031915282
C 2.0966676250 0.2588676915 -1.1650864935
C 0.5938486544 0.1931303837 -0.8433237060
C 0.2531985732 0.6159308074 0.5971283190
N -1.1726876568 0.8646097975 0.8549405196
C -1.7067280830 2.1189989703 0.5029111454
C -0.9901858237 3.0285320462 -0.2877895413
C -1.5205631651 4.2723321918 -0.6187412012
C -2.7913011073 4.6355581707 -0.1979960189
C -3.5196020812 3.7454693586 0.5851130422
C -2.9760094773 2.5210652494 0.9559473113
S -3.8616538950 1.5387674886 2.1385932957
C -3.2933326172 -0.0665460945 1.6693039342
C -2.0001011887 -0.2312900833 1.1298712080
C -1.5587668371 -1.5438615983 0.9251172537
C -2.3684604207 -2.6214131867 1.2594642089
C -3.6446348740 -2.4617873619 1.7766385447
C -4.1029866203 -1.1620097576 1.9596475849
S -1.7199704039 -4.2750788397 0.9718697916
O -0.2552798887 -4.1682174846 0.8212652671
O -2.3217159595 -5.1891190707 1.9570577811
C -2.3988751708 -4.7057320619 -0.6555204429
H 1.5104838849 -1.9866260480 0.3457145254
H 3.1969988479 -2.3696880344 0.6359616073
H 2.5662683567 -2.3845583432 -1.0290405478
H 4.8758745177 -0.9265734617 0.3109397081
H 4.5487390330 -0.8995309279 -1.4327199283
H 5.9096567669 1.0421906593 -0.7941431133
H 4.7169888837 1.5372864164 0.4152872337
H 4.3658673513 2.8577136989 -1.6725528636
H 4.2455867007 1.3654243947 -2.6078096998
H 1.9693145592 2.1939055703 -2.0908204660
H 2.3709117725 2.2533687876 -0.3669530951
H 2.2339070034 -0.2247015206 -2.1588637488
H 0.2162747748 -0.8139039414 -1.0406856935
H 0.0695646890 0.8398524961 -1.5546866672
H 0.7902715218 1.5282645681 0.8677634245
H 0.5908591595 -0.1424033691 1.3086881293
H -0.0032733056 2.7796139716 -0.6505508502
H -0.9273082025 4.9513870224 -1.2221058553
H -3.2140638538 5.5974103544 -0.4652368186
H -4.5100991686 4.0098720726 0.9419511493
H -0.5745005068 -1.7569970073 0.5367802124
H -4.2488965683 -3.3191939543 2.0491235530
H -5.0918135051 -0.9872883951 2.3717012523
H -2.0262471284 -5.7073972339 -0.8852371176
H -3.4888732706 -4.7035630264 -0.5934552812
H -2.0408405320 -3.9808510954 -1.3892556778
