51
CONF43
C 0.0489422054 -0.5320944168 2.0959515187
C 0.4651819289 0.9335450643 2.0718374659
N 0.2171771284 1.5250094447 0.7507934183
C -1.2131140034 1.4641237022 0.4322586657
C -1.7043303370 0.0209188167 0.3985881478
C -1.4321376143 -0.6677759955 1.7527101609
C -1.8860281425 -2.1123143729 1.6894077184
O -1.0747157025 -3.0235930155 1.5687743646
C -3.3482114228 -2.4163208273 1.7268326580
C -4.3201382852 -1.4547275010 2.0367870463
C -5.6681121108 -1.7896324935 2.0722108448
C -6.0251219166 -3.0976655190 1.7889258788
C -5.0983208527 -4.0811851244 1.4746791354
C -3.7583956039 -3.7285664715 1.4485014053
F -7.3349455110 -3.4310477327 1.8190114018
C 0.7117125903 2.8983826423 0.6732478974
C 2.2302079473 2.9786734522 0.5089522280
N 2.6822987206 2.2728459708 -0.7009228846
C 3.2143365410 0.9827503347 -0.5663315806
O 3.4010054449 0.4844567753 0.5389838806
C 3.5363185495 0.2963838241 -1.8194249076
C 4.0479817234 -1.0065884047 -1.8031038085
C 4.3522194375 -1.6526388795 -2.9883974072
C 4.1476609217 -0.9951985789 -4.2083796567
C 3.6429214834 0.2937490976 -4.2472459231
C 3.3341593605 0.9428339378 -3.0460655790
N 2.8308310471 2.2270579373 -3.0410476434
C 2.4831047441 2.9311185667 -1.9161670330
O 2.0314299542 4.0696778876 -1.9798963874
H 0.6492053129 -1.0923620295 1.3710080413
H 0.2495269519 -0.9554788905 3.0862300694
H 1.5326071984 1.0085915561 2.2978089184
H -0.0856771244 1.4925170585 2.8568316555
H -1.3717654996 1.9262866156 -0.5491000015
H -1.8149160009 2.0349147444 1.1700603858
H -1.1751942918 -0.5277082264 -0.3910154497
H -2.7723283200 0.0066246247 0.1580023191
H -4.0399159387 -0.4322825584 2.2612772784
H -6.4299360505 -1.0574730628 2.3156424573
H -5.4288221612 -5.0909915860 1.2575340296
H -3.0061354458 -4.4713123124 1.2073392935
H 0.2460364103 3.3844941553 -0.1903912746
H 0.4398789165 3.4930036547 1.5673266716
H 2.7542231215 2.5296282704 1.3522365948
H 2.5267984755 4.0267381799 0.4283279276
H 4.7470110750 -2.6624896480 -2.9745139464
H 4.3863387568 -1.4988691492 -5.1397119925
H 3.4843779237 0.8044627666 -5.1919184714
H 2.6858535128 2.7115272884 -3.9163250558
H -2.0182933261 -0.1441171162 2.5201744821
H 4.1965472533 -1.4902228782 -0.8439965764
