63
CONF24
C 1.8425055603 -1.5835955204 2.2176021110
C 0.6290180883 -2.4966229188 2.0628157516
N -0.0431313245 -2.2406839858 0.7852840003
C 0.8645754344 -2.5620118133 -0.3216512880
C 2.0964123534 -1.6650348682 -0.2933152440
C 2.8097624288 -1.7978889463 1.0524316696
N 3.9775720550 -0.9214242179 1.1386697670
C 4.0181712142 0.4691390244 1.0657149193
C 3.0306384751 1.4359993822 0.9149416011
C 3.4311909312 2.7750490161 0.8780799276
C 4.7742648695 3.1390197395 0.9904825949
C 5.7706518365 2.1720868164 1.1456376641
C 5.3727682550 0.8459984530 1.1809593037
N 6.1011229249 -0.3208140272 1.3204670002
C 5.2680352125 -1.4239816086 1.2966881294
O 5.5961361614 -2.6049949651 1.3946766285
C -1.3045784916 -2.9876920528 0.6706530616
C -2.2567416653 -2.3446017587 -0.3382367302
C -2.8009687984 -1.0035340712 0.1605531934
C -3.3386537748 -0.1013480697 -0.9614525474
C -4.0482404106 1.1057212241 -0.3693557965
C -5.4417153544 1.1922213086 -0.3928754749
C -6.1095378032 2.2722038393 0.1830019157
C -5.3521679101 3.2608319759 0.7841361587
C -3.9683345748 3.2177822002 0.8310875174
C -3.3243189183 2.1316318323 0.2467795510
F -5.9906201519 4.3208474300 1.3513698405
C -2.2802589040 0.3392749416 -1.9614436664
C -0.9252531369 0.4391376860 -1.6344559705
C 0.0090756250 0.9023548485 -2.5597289622
C -0.4363213245 1.2603353068 -3.8189505642
C -1.7668435870 1.1699942491 -4.1922938652
C -2.6804152879 0.7061793168 -3.2509970662
F 0.4678954106 1.7146252089 -4.7291411696
H 2.3525292805 -1.7956930915 3.1637935734
H 1.5024508448 -0.5427112324 2.2441478020
H -0.0784423396 -2.3043741920 2.8768976510
H 0.9492948535 -3.5561801684 2.1454964029
H 1.1780954835 -3.6255945675 -0.2732518704
H 0.3399015021 -2.4207308944 -1.2719074486
H 1.7895764626 -0.6277477556 -0.4606116172
H 2.7796264941 -1.9444720246 -1.1030785963
H 3.2150732819 -2.8144290127 1.1270549468
H 1.9820879859 1.1794168260 0.8287781745
H 2.6750980337 3.5443659427 0.7600215409
H 5.0519282499 4.1874012425 0.9581910938
H 6.8170132588 2.4441341935 1.2352595012
H 7.1008108431 -0.3927197671 1.4252370836
H -1.7867459385 -2.9906788182 1.6567658741
H -1.1184764367 -4.0450371176 0.4020130365
H -1.7437487597 -2.2092276286 -1.2974564948
H -3.0895981606 -3.0315810072 -0.5312485410
H -3.6146979356 -1.1823232266 0.8739299140
H -2.0202799142 -0.4704696089 0.7159069214
H -4.0914068586 -0.6723186092 -1.5205748093
H -6.0197202408 0.4044738541 -0.8679002098
H -7.1915884189 2.3467085203 0.1652285726
H -3.4136583983 4.0174130658 1.3103903059
H -2.2391071818 2.0887901246 0.2684593227
H -0.5759371389 0.1372547343 -0.6515993658
H 1.0623317394 0.9805243883 -2.3098709596
H -2.0744996112 1.4533789423 -5.1931668226
H -3.7296029745 0.6312594382 -3.5250380806
