27
CONF24
C -3.1417720128 -0.1103060000 1.0103825551
C -3.7349063901 -0.4584888216 -0.3463390110
O -3.9654389239 0.7445875888 -1.0854415829
C -1.7834381773 0.5580165173 1.0244928286
C -0.6637130183 -0.1866258322 0.2311163552
C 0.8016755904 0.2253327100 0.6087463033
C 1.8598117951 -0.1730834829 -0.4804887058
C 3.3292695701 -0.1920505012 0.0640804764
C 4.4246624171 -0.1501669796 -1.0522980753
F 4.1765439474 -1.0779095269 -1.9871947044
F 5.6159520211 -0.4057362771 -0.4940320708
F 4.4762185696 1.0541408423 -1.6306445956
F 3.5168582571 -1.3240871484 0.7761036388
F 3.5288225736 0.8768290599 0.8698303034
F 1.5710861187 -1.4085060598 -0.9508311057
F 1.7875878323 0.7122290450 -1.5011345116
F 0.8602456706 1.5654769834 0.7798525167
F 1.1387218921 -0.3824451681 1.7712451117
F -0.7908152456 -1.5190272071 0.4581455278
F -0.8437789369 0.0456345793 -1.0955429039
F -1.3515200209 0.6470493256 2.3308191850
F -1.8443016082 1.8366475928 0.5468660898
H -3.8086392434 0.5739321151 1.5474698918
H -3.0601327302 -1.0275069941 1.6006759113
H -3.0770539017 -1.1404643424 -0.9006284664
H -4.6789023143 -0.9875715897 -0.1579188553
H -4.3430441444 0.4934759477 -1.9373320214
