39
CONF98
C 5.1702984404 1.2383239200 -3.1929588960
C 3.8593557521 1.1780285750 -2.4120309494
C 4.0922482919 1.0353634148 -0.9081948808
C 2.8115103299 1.0133379807 -0.1062669699
C 2.9872793565 0.8554586060 1.4123886825
O 1.9835659957 -0.1102492676 1.7985727717
C 1.1898838858 -0.3741105779 0.6494631856
C 0.7963940798 -1.8621158553 0.6456672026
N -0.2725847277 -2.1510564518 1.5814775194
C -1.5951114698 -2.2430349264 1.3292475404
N -2.2691914124 -2.3990898387 2.4609523753
C -1.2809399094 -2.3849656200 3.3999586163
N -0.0542786160 -2.2320835190 2.9175894448
O 2.0415863635 -0.1637482269 -0.4522496469
C -0.0340483845 0.5535142461 0.6272639189
C -0.8670803053 0.7205798869 -0.4844249405
Cl -0.5804648291 -0.1226883564 -2.0022395364
C -1.9839852490 1.5493808506 -0.4548883498
C -2.2800817177 2.2183400056 0.7243825205
Cl -3.6892586677 3.2614707443 0.7714458064
C -1.4929924283 2.0761651169 1.8579151366
C -0.3830771341 1.2441773888 1.7905943399
H 5.7773412599 2.0928972558 -2.8741147076
H 5.7613657924 0.3300971990 -3.0321106680
H 4.9885851610 1.3357805348 -4.2675444538
H 3.2557492877 0.3341507302 -2.7660718607
H 3.2705742137 2.0854361699 -2.5990542143
H 4.6960102687 1.8784804035 -0.5459204045
H 4.6585186574 0.1194149342 -0.6935455401
H 2.2030851828 1.9028151712 -0.3297473554
H 2.8288495899 1.7987793703 1.9461888816
H 3.9681781840 0.4418462376 1.6698666496
H 0.4504189048 -2.1348014326 -0.3533900178
H 1.6789121875 -2.4529254049 0.9012835111
H -1.4643158733 -2.4966727699 4.4612062714
H -2.6083145411 1.6628770304 -1.3324767665
H -1.7380025519 2.5996132828 2.7744026759
H 0.2411529817 1.1183704559 2.6673493172
H -2.0036000370 -2.2015244077 0.3274082601
