33
CONF3
C -4.1339119949 1.2771538799 1.4780805502
C -3.3682253452 0.0158083352 1.0730197864
C -4.2092446547 -0.8526920047 0.1557038674
O -3.8576189810 -2.1601689223 0.2513677270
O -5.0653100982 -0.4558507181 -0.5988572480
C -2.0669048602 0.3435042516 0.3572199538
C -2.0850398438 1.0064172519 -0.8753468999
C -0.8964483866 1.3343693897 -1.5158923040
C 0.3253090248 0.9881727059 -0.9480412265
C 0.3569816287 0.3208408504 0.2794713273
C -0.8438938366 0.0138002317 0.9275781988
C 1.6357516675 -0.0042258611 0.9810057233
O 1.6774369203 -0.0300245113 2.2029219835
C 2.8618863734 -0.2919276731 0.1786904464
C 4.1066303240 0.0014101635 0.7466532058
C 5.2755546358 -0.2903706473 0.0590585018
C 5.2148790501 -0.9054278043 -1.1907057044
C 3.9815006057 -1.2255480728 -1.7504381830
C 2.8074258257 -0.9109829690 -1.0748511590
H -5.0507449577 1.0172341686 2.0145522048
H -4.4138102417 1.8576698500 0.5965182046
H -3.5074859688 1.8965997291 2.1247087460
H -3.1226377162 -0.5783705182 1.9586452087
H -4.3992573049 -2.6418390989 -0.3939396404
H -3.0364263236 1.2607843746 -1.3334943802
H -0.9222758505 1.8632182904 -2.4631723067
H 1.2521802514 1.2595139598 -1.4419557342
H -0.7969680247 -0.4861973260 1.8900855168
H 4.1322380016 0.4590874312 1.7297865445
H 6.2377468004 -0.0451505550 0.4970174964
H 6.1300661651 -1.1414093898 -1.7243733285
H 3.9336829308 -1.7223466755 -2.7140665843
H 1.8469343852 -1.1730519995 -1.5062289960
