37
CONF21
C 5.2714398958 -2.0743674253 1.7916355431
C 4.2761043746 -2.2352089576 0.6568065630
C 4.6130667602 -1.3992481076 -0.5613970276
O 2.9605022839 -1.7683138925 1.1035378896
C 2.2200778659 -2.6487235486 1.8138986731
O 2.5834047693 -3.7638633180 2.1087531752
C 0.8867485748 -2.0649694128 2.1434293302
C 0.1400805777 -2.4548152861 3.2665412786
C -1.1217154474 -1.9215228954 3.5022383848
C -1.6442706456 -1.0143681968 2.6000191318
C -0.9568156216 -0.6052068301 1.4583861653
C 0.3177790968 -1.1346281444 1.2694516604
C -1.5136593508 0.3618158491 0.5109286509
N -0.7889013393 1.4209258119 0.1265799644
N -1.5322574938 2.0761364715 -0.7680718307
C -2.7379738818 1.4754757216 -0.9770102344
C -2.7534640254 0.3506191078 -0.1643890145
Br -4.0461703491 -1.0053745649 -0.0766561621
C -3.7226531605 2.0283772628 -1.9483859631
F -3.2629523801 1.9513841237 -3.2266715556
F -3.9632591556 3.3457834087 -1.7109519908
F -4.8938316551 1.3847519345 -1.8980836891
C -1.0404040550 3.3315691003 -1.3213237266
F -2.8453539181 -0.4783655175 2.8707397007
Cl 0.7605907425 -3.5590164745 4.4606232124
H 6.2614156612 -2.4066451477 1.4645016814
H 5.3395591187 -1.0235448806 2.0901077197
H 4.9750833795 -2.6749850261 2.6543133124
H 4.1752478248 -3.2928747838 0.3917049726
H 5.5829272464 -1.7075480021 -0.9622705797
H 4.6694962880 -0.3390266799 -0.2965951241
H 3.8595499583 -1.5258902156 -1.3432799500
H -1.6869317847 -2.1902265675 4.3857434004
H 0.8820118218 -0.8232871963 0.3992951446
H -1.2553462586 3.3793664567 -2.3908389203
H 0.0369731623 3.3513846130 -1.1577869483
H -1.5067241836 4.1830546779 -0.8173146335
