41
CONF89
C -3.1567705243 -1.5278357761 1.2364112874
C -3.1922518166 -0.6717383428 -0.0334467444
C -3.2518172863 -1.5472271873 -1.2815459623
N -2.0432604360 0.2445563925 -0.1539118730
C -1.9502805327 1.2609911033 0.9000343514
C -1.2166903881 2.5086078690 0.3627715775
O -1.6271817511 2.7525430970 -0.9826529051
C 0.2963050143 2.4287100798 0.4759173378
O 0.7468555354 1.2267495132 -0.1677808316
C 2.0881019078 0.9772886138 -0.2001226263
C 3.0515935004 1.8360541457 0.3351657266
C 4.4017677522 1.4950501045 0.2543301513
C 4.7958271480 0.3090470948 -0.3534218873
C 3.8233781114 -0.5398776469 -0.8818190485
C 2.4675424559 -0.2300173167 -0.8172932703
C 1.4324668594 -1.1774946481 -1.3565797918
C 0.7584296506 -2.0374144122 -0.3182737568
C 0.9756299256 -2.0056873254 0.9948551009
H -2.2713061792 -2.1750242232 1.2299763031
H -3.1232392798 -0.9076104801 2.1375909271
H -4.0453278036 -2.1651684101 1.2973414924
H -4.0917026202 -0.0399676483 -0.0055844041
H -2.3503694524 -2.1671295666 -1.3558309487
H -3.3241944266 -0.9345724381 -2.1852618775
H -4.1169147314 -2.2160201644 -1.2411149886
H -1.1835118698 -0.2993489443 -0.1736708944
H -2.9715000671 1.5578685725 1.1666148913
H -1.4561000381 0.9123649371 1.8198198493
H -1.5135383954 3.3742839787 0.9703887273
H -1.8745446661 1.8565423026 -1.2978081522
H 0.5871890682 2.4145965611 1.5362163549
H 0.7462191692 3.3056728136 -0.0080813772
H 2.7661074228 2.7643326508 0.8143114261
H 5.1425958241 2.1694120870 0.6731307267
H 5.8461464038 0.0445794709 -0.4185309824
H 4.1190721375 -1.4718833942 -1.3571106906
H 0.6541773200 -0.6270039798 -1.9032797314
H 1.9016225805 -1.8392384280 -2.0958801941
H 0.0311970272 -2.7437275532 -0.7192025372
H 1.6901177033 -1.3159222350 1.4376497225
H 0.4381602814 -2.6687008704 1.6656795218
