25
CONF1
N 3.8615854389 1.5676638087 -0.2367350829
S 3.3507946276 0.1368034971 0.4837098975
O 3.2490868918 0.2918472187 1.9463491864
O 4.1924775293 -0.9395683927 -0.0647763613
C 1.6731457784 -0.0385739871 -0.1155006040
C 1.3331032515 -0.2059337686 -1.4720650115
Cl 2.5545761156 -0.2213478733 -2.7190749900
C 0.0236170804 -0.3577261843 -1.8707105904
C -1.0258824107 -0.3688650024 -0.9250822882
N -2.3090506970 -0.4944180511 -1.3328932150
C -3.4248453011 -0.6561533585 -0.4065297399
N -3.3091823529 0.2261613103 0.7568576206
S -1.9405101490 -0.1509738534 1.6781525747
O -1.6970017991 0.9659699260 2.6015180429
O -2.1500232360 -1.5004320169 2.2251478251
C -0.6663783424 -0.2024213522 0.4361963522
C 0.6521792638 -0.0327579246 0.8252675237
H 4.8391908832 1.4886358641 -0.5094138226
H 3.7208211013 2.3586799251 0.3882824157
H -0.2120844063 -0.4766670809 -2.9227857080
H -2.4927494393 -0.6140791292 -2.3174830716
H -3.4915524480 -1.6892412224 -0.0414959695
H -4.3488373171 -0.4113001591 -0.9349585539
H -3.2768770547 1.2127241479 0.4936083166
H 0.8943966002 0.1119737699 1.8725523376
