30
CONF6
C 3.8467640685 -0.9374584630 0.8128729309
C 3.7198467720 0.2612915970 -0.1274647441
C 2.4239269539 0.2706343457 -0.9439302766
C 1.1521317228 0.3650239660 -0.1002889645
C -0.1127921193 0.4979223617 -0.9485204409
C -1.3968478569 0.5617196294 -0.1266395475
C -1.7137636061 -0.7379152833 0.6632665588
C -3.2480046105 -0.9463046819 0.5623297399
C -3.7928982274 0.3621957567 -0.0330311989
C -2.6630621488 0.8119986853 -0.9602968034
H 3.7339993044 -1.8784940967 0.2625182264
H 4.8244987738 -0.9519884171 1.3040389597
H 3.0848046010 -0.9174539135 1.5976200013
H 4.5721339039 0.2685929079 -0.8181091316
H 3.7866179687 1.1911481504 0.4529943481
H 2.4482984203 1.1172298711 -1.6431673220
H 2.3789645553 -0.6374378020 -1.5618482538
H 1.2266503843 1.2292750123 0.5758396809
H 1.0643883270 -0.5210699725 0.5404377548
H -0.1782897378 -0.3531458495 -1.6428568707
H -0.0346953461 1.3999679885 -1.5717900840
H -1.3040213639 1.3907221590 0.5904864137
H -1.3837001516 -0.6587735360 1.7034197315
H -1.1769182476 -1.5886813132 0.2276416625
H -3.7054021381 -1.1965580238 1.5239441123
H -3.4681561842 -1.7733838199 -0.1216717991
H -3.9359177960 1.1088834703 0.7584228992
H -4.7525344334 0.2315313724 -0.5426051267
H -2.6446324146 0.1780343600 -1.8583541473
H -2.7513900617 1.8524935384 -1.2895999947
