37
CONF19
C 5.1107029859 -2.8429435023 0.7786120737
C 4.1350398799 -2.0926474219 1.6648203920
C 3.3181087855 -2.9968361308 2.5632045963
O 3.1554577885 -1.3955867172 0.8088244793
C 3.5084007082 -0.1977446372 0.3216375183
O 4.5802677975 0.3412860286 0.5097312905
C 2.3832530730 0.4099151869 -0.4491650272
C 2.5761947272 1.1776214924 -1.6056778767
C 1.5062521070 1.7794261454 -2.2551054050
C 0.2385409108 1.6126131716 -1.7293141145
C -0.0192804593 0.8425257182 -0.5964855760
C 1.0787460380 0.2476695671 0.0232078881
C -1.3672978720 0.6786851657 -0.0496570803
N -1.5996042948 0.9028522690 1.2533194518
N -2.8909227828 0.6326022364 1.4651834043
C -3.5161925546 0.2373621126 0.3229749442
C -2.5516661638 0.2538542004 -0.6752817742
Br -2.7634311054 -0.3180294095 -2.4516815521
C -4.9449414721 -0.1726171949 0.2034497986
F -5.0611783997 -1.5017133014 -0.0434787937
F -5.5515704850 0.4668077645 -0.8231259764
F -5.6570371242 0.0897279787 1.3173868408
C -3.4334143138 0.8117685561 2.8127743943
F -0.7803985642 2.2514932506 -2.3325107737
Cl 4.1539080240 1.3672635139 -2.3321662539
H 4.5797913563 -3.5847847899 0.1737103461
H 5.6487682374 -2.1589707948 0.1177028261
H 5.8408617141 -3.3640205060 1.4051026017
H 4.6545842871 -1.3279022764 2.2498800982
H 3.9893462127 -3.5321634891 3.2408075630
H 2.7657752178 -3.7323312654 1.9700890287
H 2.6102302436 -2.4174302560 3.1620424476
H 1.6485178872 2.3752158220 -3.1486388566
H 0.9128623157 -0.3555824161 0.9080674286
H -2.5942638200 1.0856672299 3.4509750438
H -3.8802973806 -0.1196293536 3.1654543546
H -4.1804027013 1.6081626330 2.8179405797
