40
CONF5
C 4.0649959407 0.1315034456 1.0116352004
O 3.8809743260 -1.0438374885 1.8367320642
C 2.7526422324 -1.7431796431 1.6826189473
C 2.5681826640 -2.8664791651 2.4777733263
C 1.3735494255 -3.5554776470 2.2760971841
N 0.4499202509 -3.1809305235 1.3843648102
C 0.7456128183 -2.0862712349 0.6823166512
N 1.8489829890 -1.3425008723 0.7772094321
N -0.2338817412 -1.7103858283 -0.2330841107
C -0.2995880907 -0.6345671863 -1.1047691547
O -1.3127392614 -0.4079408260 -1.7540608437
N 0.8450817136 0.1348742982 -1.1907953044
S 0.8031734567 1.6622822463 -1.9293620184
O 2.0474740774 2.2879681580 -1.4733079264
O 0.5453157733 1.5028683289 -3.3622605410
C -0.5643035451 2.4750853238 -1.2051965514
C -0.7284315000 2.8751274127 0.1194227251
N -1.9226997159 3.4173644209 0.3564947717
C -2.5706381038 3.3654071088 -0.8247050234
N -1.7781827856 2.7788955572 -1.8191144429
C -2.2370557652 2.5934042625 -3.0948956168
C -3.5029994577 3.0090864060 -3.4017512680
C -4.3230654718 3.6176526099 -2.4295199961
C -3.8617342030 3.7969800296 -1.1466076091
Cl 0.4344619092 2.6762954226 1.3751289368
O 1.1623890624 -4.6431443553 3.0252935414
C -0.0752097135 -5.3683905216 2.8289868364
H 3.2760544121 0.8634539629 1.2062557424
H 4.0738932106 -0.1406569993 -0.0473778906
H 5.0337556429 0.5322270545 1.3072216347
H 3.3029847262 -3.1848112234 3.2047195114
H -1.0656405995 -2.2870764001 -0.2328755822
H 1.5763123945 -0.0384126647 -0.4798156191
H -1.5624613009 2.1230388378 -3.7945304097
H -3.8621445955 2.8591984027 -4.4124948493
H -5.3222247246 3.9424237247 -2.6968906642
H -4.4617503379 4.2556057800 -0.3697485285
H -0.0271268212 -6.1966215570 3.5350048405
H -0.9328064318 -4.7279756740 3.0481581221
H -0.1410718643 -5.7420824804 1.8044347611
