65
CONF590
C -2.9804953160 3.4867472467 -2.4899577516
C -1.9977179182 2.7587200203 -1.5759591054
C -1.6235152850 3.5748875299 -0.3171881282
C -2.8288636483 3.8674141001 0.5784062189
C -0.5189148405 2.8259967701 0.3950317561
O 0.6689731529 2.9997761499 0.1917241077
O -1.0044612190 1.8944349333 1.2374287485
C -0.0416683056 1.0303381560 1.9166239288
C 0.4148510969 1.6808357313 3.2115313692
C 1.4645387224 0.8009554681 3.9081944041
C 1.0572297862 -0.6425513557 3.8796550268
C 0.0714344275 -1.1486814723 3.1141448379
C -0.7556650934 -0.2842760548 2.1814203744
C -1.1067485181 -1.0659345504 0.8981216589
C -1.9458632636 -2.2943028715 1.3058012537
C -1.2057219744 -3.0994723667 2.3397682377
C -0.2718839788 -2.5622053054 3.1434892760
C -2.3934336398 -3.1500149810 0.1178831324
C 0.1572080968 -1.4295829778 0.0843773422
C 0.2283029984 -0.6650517293 -1.2386823094
C 1.5390882846 -0.8659829031 -1.9774465634
C 1.7988591749 -2.2916352741 -2.4220302398
C 3.0268049320 -2.3366289876 -3.3145714254
C 2.7629258255 -1.4826382090 -4.5485191048
C 2.1275081079 -0.1377861351 -4.2802218397
O 2.1246864628 0.7534968933 -5.1063621493
O 1.4830441264 0.0699061969 -3.1177558562
O 3.4025419998 -3.6677036890 -3.6774600251
C 2.8711673554 0.9851535610 3.3102296448
H -3.1425897397 2.9123975358 -3.4069472949
H -3.9530219826 3.6277548815 -2.0097367825
H -2.5939979752 4.4722839353 -2.7718081824
H -2.4210547051 1.7970766690 -1.2578206278
H -1.0793274879 2.5362175995 -2.1328275051
H -1.1711401212 4.5171268865 -0.6476810398
H -3.3803600236 2.9508895704 0.8069208796
H -2.5152942132 4.3245293598 1.5216190802
H -3.5080848539 4.5623194585 0.0783092194
H 0.8098432870 0.8825870021 1.2457087833
H 0.8286260584 2.6735837766 3.0069700014
H -0.4598900795 1.8045029828 3.8616586641
H 1.5214434971 1.1138286521 4.9604395116
H 1.6175725628 -1.3211706838 4.5230135943
H -1.7031163126 -0.0474802561 2.6909864677
H -1.7454006308 -0.4217079856 0.2807298790
H -2.8627774927 -1.9025765025 1.7762140642
H -1.4433716261 -4.1587525587 2.4223963232
H 0.2574886202 -3.1868572456 3.8606509850
H -3.0791114045 -3.9351506331 0.4525661785
H -2.9137646777 -2.5347126713 -0.6235731284
H -1.5477597740 -3.6389275056 -0.3758454718
H 1.0594225364 -1.2194894127 0.6746570291
H 0.1794373742 -2.5052078003 -0.1108944532
H -0.5999320396 -0.9685128413 -1.8927260253
H 0.1114785798 0.4092286245 -1.0525796782
H 2.3740425466 -0.5163165837 -1.3548732093
H 0.9253645538 -2.6843846892 -2.9621704332
H 1.9611659391 -2.9096086301 -1.5337835898
H 3.8888608462 -1.9393564369 -2.7650716658
H 2.0509348694 -2.0132608299 -5.1982250734
H 3.6686004242 -1.3145973758 -5.1367110012
H 2.6640595732 -4.0625397519 -4.1610232852
H 2.8834798777 0.7258567359 2.2464136583
H 3.5954679425 0.3417552334 3.8199100446
H 3.1984935759 2.0244565961 3.4174570524
