60
CONF220
C 0.4858165742 -1.5713578029 0.0635567898
C -0.4235976929 -0.7439550428 -0.8436842282
C -1.7313962516 -0.3799123152 -0.1332839548
C -1.4964410292 0.0358815305 1.2941252320
C -0.3231295719 -0.2147378152 1.9715557897
O -0.1848136215 -0.0056143858 3.2683517598
C 0.9102346685 -0.7540613449 1.2875419212
O 1.6573114929 -1.5307954983 2.2196971939
C 1.8421490479 0.4294316862 0.8963105463
O 1.8466190117 1.4433524843 1.5995604440
C 2.7011217232 0.2532902002 -0.2594535379
C 3.6347075061 1.2966836880 -0.7159447670
O 4.2929589565 1.1301961303 -1.7901074128
N 3.7935927813 2.4144095409 0.0008775529
C 4.6838014303 3.4751753621 -0.4478141074
O 4.1600360514 4.2150032551 -1.5418492547
C 2.6110405929 -0.8961119586 -1.0408805723
O 3.2858214571 -1.0301589138 -2.1478012269
C 1.7369080270 -2.0675745851 -0.6768994107
N 2.4821055857 -3.0410911712 0.1842400715
C 1.8468236424 -4.3682657664 0.1114921796
C 3.9132589561 -3.1653656603 -0.1377196661
C -2.6162979748 0.5444874967 2.0159241241
O -2.5801620067 0.6651154712 3.2907607811
C -3.8006798055 1.0022308250 1.2894276052
C -4.9264165880 1.4425506856 2.0395718345
O -5.0052249105 1.3011049967 3.3719817166
C -5.9996406899 2.0574173969 1.3961481459
C -5.9008524960 2.3476935391 0.0531863798
C -4.7761153271 1.9582934517 -0.6765917029
Cl -4.7171265801 2.6134142833 -2.3232643604
C -3.7470387954 1.1988313279 -0.1198193653
C -2.5777806758 0.6324620784 -0.9500788756
C -3.0942994732 -0.1321694064 -2.1809472621
O -1.7005830625 1.7131274446 -1.3134429753
H -0.0762264015 -2.4384838613 0.4286396993
H 0.0856110378 0.1718056120 -1.1580397386
H -0.6286071089 -1.3277559162 -1.7444242239
H -2.3507428027 -1.2884206496 -0.0847009143
H -1.0942068720 0.3005183264 3.5870536761
H 2.1288269567 -2.2093547940 1.6448701196
H 3.1859469228 2.5323280498 0.8074814222
H 4.7996111679 4.1739736956 0.3821441219
H 5.6545520582 3.0363308499 -0.7037349659
H 4.2572995520 3.6700347963 -2.3343484310
H 3.8541901181 -0.1290903070 -2.2097592033
H 1.4479632035 -2.5439549715 -1.6281199604
H 0.7901978703 -4.3063621200 0.3798920453
H 1.9317047767 -4.8022472050 -0.8977555413
H 2.3421494743 -5.0324983294 0.8250069392
H 4.4261831919 -2.2130832343 0.0220047665
H 4.0837268884 -3.4953693804 -1.1741802789
H 4.3481297927 -3.9037152146 0.5410046736
H -4.0998626021 1.0051426477 3.6671206791
H -6.8651962176 2.3617782311 1.9739204157
H -6.6925553889 2.8989962597 -0.4419598672
H -3.7944553895 -0.9103844158 -1.8633799980
H -3.5960311391 0.5100175512 -2.8989668608
H -2.2567473964 -0.6061655910 -2.6949545605
H -2.1641723432 2.2769792810 -1.9476140991
