19
CONF27
F -0.2029360008 -1.8356057991 1.1960952870
C -0.5463457384 -1.0206477453 0.1671753365
F -0.7200902413 -1.7679794485 -0.9431261217
C 0.6286138953 -0.0322175344 -0.0785118601
F 0.6423389296 0.9270073052 0.8665700003
F 0.4856362967 0.5380707277 -1.2926541167
S 2.3466320780 -0.8990472908 -0.0404162005
N 3.3827793389 0.1927944950 -0.7154833314
O 2.6933951533 -1.0412754498 1.3727916355
O 2.2346637231 -2.0454403873 -0.9426319470
C -1.9358324793 -0.3991262543 0.5601666197
F -1.8360597047 0.1548773470 1.7875882299
F -2.8083381594 -1.4329333439 0.6180521971
C -2.5391258003 0.6692725990 -0.4011649758
F -3.7869004390 0.9511440056 -0.0084272886
F -1.8127170974 1.7948470129 -0.3632662288
F -2.5717535184 0.2109862416 -1.6586978467
H 3.2043234784 0.3763452635 -1.7003387865
H 3.4997951246 1.0396917078 -0.1628226399
