33
CONF4
C -4.9841166545 -0.0477059927 1.9963392582
C -4.0351912053 0.6190752387 0.9995145842
C -4.4779951483 0.3725294702 -0.4359630493
S -3.3636142622 1.1314324971 -1.6976073048
C -1.8623326479 0.1949504211 -1.4232207584
C -1.8338716970 -1.1879190128 -1.6878844661
C -0.6806829948 -1.9404582465 -1.5052501481
C 0.4716672669 -1.2832891333 -1.0744640809
C 0.4301782646 0.1092543638 -0.8316667321
C -0.7205337785 0.8692215630 -0.9845122787
N 1.7119711595 0.4395082220 -0.4260102545
C 2.4293245391 -0.7246443310 -0.4480478837
N 1.7417216359 -1.7807515483 -0.8254659813
N 3.7649069907 -0.7952953126 -0.1045386244
C 4.5395250741 0.2657148406 0.2947408392
O 4.1521182036 1.4160959930 0.4026113788
O 5.7918808641 -0.1583449299 0.5482795599
C 6.7051515683 0.8793467119 0.9792356570
H -5.0179068433 -1.1313385486 1.8407650737
H -6.0034728496 0.3389422229 1.8899088881
H -4.6610679143 0.1339148941 3.0257894150
H -3.0192965345 0.2290001950 1.1346281812
H -3.9880164577 1.6987423572 1.1822982152
H -5.4587982826 0.8230764606 -0.6283608578
H -4.5609533774 -0.7001725767 -0.6434619763
H -2.7351070823 -1.6712978424 -2.0504103298
H -0.6688701259 -3.0062527506 -1.7076977184
H -0.7461202576 1.9320312494 -0.7711217347
H 2.0890560913 1.3390606911 -0.1645053417
H 4.1850294139 -1.7121965312 -0.1630096311
H 7.6545912497 0.3708976722 1.1404269364
H 6.3484229094 1.3346336785 1.9058654636
H 6.8024043746 1.6422383160 0.2035169296
