64
CONF269
C 7.5102909131 2.1258809421 1.4060050270
C 6.2002317794 2.8841875132 1.4346946217
O 6.1864774785 4.1235451536 1.4230977665
N 5.0537893094 2.1542025612 1.4902623136
C 4.9616599121 0.7003381592 1.3856489879
C 4.2172696896 0.3142741874 0.1120900788
N 2.8879043056 0.9474754633 0.0815034178
C 3.0042281503 2.4037224928 0.1651361432
C 3.7435072944 2.7980124794 1.4405182115
C 2.0029588826 0.4399579024 -0.8992954660
C 1.6969431846 -0.9309502193 -0.9095848261
C 0.7860394953 -1.4690326896 -1.8078991164
C 0.1285803143 -0.6370109851 -2.7171404343
O -0.7838945620 -1.0652598845 -3.6570137775
C -1.5861902930 -2.2207432346 -3.3851770128
C -2.7632984970 -1.9182592439 -2.4748831912
C -3.5556817881 -0.6480918870 -2.8394470108
O -3.1413357070 0.3111842218 -1.8519736138
C -2.8988392321 -0.4489716069 -0.6862445626
C -1.8861072795 0.3213174958 0.1766974279
N -1.6764829716 -0.3230039120 1.4598067524
C -0.9492978931 -1.4704540891 1.6942420142
C -1.1443209746 -1.7654096510 3.0191866629
N -1.9793706545 -0.8332266360 3.6029906323
C -2.2834003966 0.0122072896 2.6341665399
O -2.2838070802 -1.6451802769 -1.1388230561
C -4.1899845197 -0.7784960843 0.0766322082
C -4.4223478862 -2.0957879528 0.4806274126
C -5.5473083137 -2.4650353153 1.2065336817
C -6.4683272765 -1.4823273484 1.5389043301
Cl -7.9021892359 -1.9116805768 2.4545649385
C -6.2847965511 -0.1574792888 1.1687230422
C -5.1431612381 0.1760821087 0.4470906941
Cl -4.9609295382 1.8798136344 0.0468393441
C 0.4310635206 0.7210978213 -2.7322703893
C 1.3636579006 1.2537744798 -1.8454235754
H 7.6009017549 1.5256068276 0.4950081555
H 7.6066130152 1.4520772960 2.2627851736
H 8.3201464982 2.8543305225 1.4313219247
H 5.9519165971 0.2468706971 1.3789812082
H 4.4135806891 0.3192231231 2.2584218887
H 4.1119424084 -0.7720897881 0.0847606669
H 4.8140292239 0.6239456152 -0.7662125951
H 3.5390480384 2.8240442393 -0.7072059008
H 2.0021814398 2.8433545618 0.1972635994
H 3.1603238970 2.4793971808 2.3151243864
H 3.8785703742 3.8794000487 1.4761556874
H 2.1564483148 -1.5908224914 -0.1805868778
H 0.5705629050 -2.5294995960 -1.7566518290
H -0.9931367008 -3.0461637908 -2.9782065119
H -1.9771549780 -2.5351241014 -4.3578411625
H -3.4175301340 -2.8007142110 -2.4558946527
H -3.3008447794 -0.2484024566 -3.8218549403
H -4.6364363151 -0.8220043352 -2.7703551876
H -0.9444363087 0.3736037735 -0.3761039503
H -2.2569036028 1.3331683561 0.3511283002
H -0.3760888735 -1.9452312542 0.9133116703
H -0.7270147602 -2.5884146451 3.5831329228
H -2.9206672447 0.8843213177 2.7178155145
H -3.6908402689 -2.8505620240 0.2172408443
H -5.6996454467 -3.4953013275 1.5055894908
H -7.0075996050 0.6027016401 1.4384252392
H -0.0751793345 1.3663375114 -3.4438069336
H 1.5736828378 2.3152743769 -1.8984565354
