56
CONF2
C 2.5048915703 -0.6115985873 1.0303334056
C 2.0176794974 -0.3166560893 2.4420048068
N 1.2084494448 -1.4262815158 2.9482913957
C 0.0770612534 -1.6633676587 2.0452821909
C 0.5703462274 -1.9556157440 0.6374709939
N 1.3644520982 -0.8332261318 0.1476951800
C 1.7350123570 -0.9763066907 -1.2565774765
C 2.1248128450 0.3644383269 -1.8911280491
C 1.1587577752 1.4793506648 -1.4781283329
N -0.2364717981 1.0973918836 -1.7035655606
C -0.6772732519 0.8462568501 -3.0131834223
C -0.0717365500 1.4542149070 -4.1193505883
C -0.5114719942 1.1819444215 -5.4106700834
C -1.5846831762 0.3259405116 -5.6263294214
C -2.2126334019 -0.2680202595 -4.5358230365
C -1.7470375741 -0.0323357641 -3.2469298945
S -2.4488391781 -0.9347989922 -1.8851284269
C -2.2578029943 0.2845252904 -0.6113522849
C -1.1522749521 1.1529860276 -0.6465139306
C -1.0026428023 2.0621493222 0.4048107385
C -1.8793680944 2.0480013934 1.4861021506
C -2.9577093080 1.1712931263 1.5236958481
C -3.1564307841 0.3112389438 0.4499857092
C -1.6095134616 2.9627554252 2.6424142371
F -1.0921935116 4.1507315955 2.2458553841
F -0.7055135941 2.4212386799 3.5082338985
F -2.7223365557 3.2280056484 3.3612328624
C 0.7669989503 -1.1885668851 4.3274208871
C 0.3910738784 -2.5039637769 5.0007696413
O 1.4549871921 -3.4425907076 4.9059268443
H 3.0870636439 0.2463905639 0.6724066098
H 3.1829705417 -1.4896569622 1.0505192549
H 1.4412869965 0.6305042981 2.4334328060
H 2.8807882115 -0.1817527992 3.1044045352
H -0.5987179760 -0.7850377856 2.0140409335
H -0.5010170208 -2.5209122929 2.4063926082
H 1.1487751308 -2.9021519952 0.6398877528
H -0.2935649470 -2.0863242925 -0.0249442895
H 0.8573007045 -1.3663569717 -1.7857422561
H 2.5529648205 -1.7081628359 -1.4072683884
H 3.1339056655 0.6735071502 -1.5932257507
H 2.1481563923 0.2394574381 -2.9790103930
H 1.2729342471 1.6302079412 -0.4055447237
H 1.4135532043 2.4274102725 -1.9723809061
H 0.7503708394 2.1443274631 -3.9733734264
H -0.0149272966 1.6572466983 -6.2500675299
H -1.9358558242 0.1211813742 -6.6314885700
H -3.0534836617 -0.9386691003 -4.6815211815
H -0.1995438165 2.7878590270 0.3868816545
H -3.6413086556 1.1689804189 2.3637954014
H -4.0037325274 -0.3666639684 0.4438527655
H -0.0768895422 -0.4734374946 4.3772301036
H 1.6084534148 -0.7503938722 4.8776645096
H 0.1988198330 -2.3253979003 6.0645161821
H -0.5349451735 -2.9170024367 4.5674000793
H 1.8280523978 -3.3042860421 4.0211963538
