46
CONF1
C 4.2814679934 -0.7428376209 0.5800199100
C 3.0519278840 0.1571638316 0.5672783739
C 1.7339399864 -0.6450955632 0.8368050605
N 0.6710263850 0.1277330813 0.2167885870
C 0.9677518112 0.6637040170 -1.1170865248
S 2.8061536315 0.8038194104 -1.1866690926
C 0.0903265216 1.9176855531 -0.7520629264
C -0.0568705147 1.2238528802 0.6222942143
O -0.5218080891 1.5197541268 1.7093956728
N -1.0376554424 2.2983454771 -1.5431406403
C -2.1616727958 1.5546219615 -1.8435300505
O -2.9924111377 1.9624515461 -2.6321652398
C -2.2904386448 0.2429175860 -1.1213969194
C -2.8826567646 0.2090755711 0.1462101322
C -2.9922000751 -0.9985661666 0.8420202518
C -2.5395642868 -2.1627001065 0.2346332131
C -1.9957736482 -2.1635693377 -1.0463383891
C -1.8823560475 -0.9492193350 -1.7252720134
O -1.3482466963 -0.8106975527 -2.9741251051
C -0.9613209103 -1.9977379913 -3.6647618149
O -3.3055193416 1.4095956748 0.6092042230
C -3.7943995377 1.4726979999 1.9491043922
C 1.5883106852 -1.0245317251 2.3201979248
O 2.3158669670 -1.8839631442 2.7585563866
O 0.6998951771 -0.4015116858 3.0898543986
C 3.2099411086 1.3176544666 1.5483363831
H 4.1702057701 -1.5740769150 -0.1203803849
H 5.1726117983 -0.1717431606 0.3035517258
H 4.4247498683 -1.1488416237 1.5851610075
H 1.8025930352 -1.6001762208 0.3031404899
H 0.5928999780 0.0704038599 -1.9536976219
H -3.4208463222 -1.0375858838 1.8343542286
H -2.6208980672 -3.1022598550 0.7716320788
H -1.6712046021 -3.0936014539 -1.4937287216
H -1.8149132088 -2.6739937270 -3.7928482177
H -0.1514315058 -2.5211781713 -3.1397631091
H -0.6080189055 -1.6680285044 -4.6422579731
H -3.0283033829 1.1440019762 2.6602427040
H -4.7043930066 0.8709837705 2.0636863915
H -4.0281862595 2.5227225528 2.1256226303
H 2.3234724935 1.9576950200 1.5813198081
H 4.0600409176 1.9400760114 1.2587287881
H 3.3946677331 0.9317970232 2.5580904716
H 0.1800660691 0.3091075290 2.6262828855
H 0.7360248097 2.7911743925 -0.6158544341
H -0.9873489082 3.1754855121 -2.0413917023
