33
CONF164
C -3.0112559290 -1.1479648343 2.6945649557
C -3.2935905559 -0.9618977608 1.2074422399
C -2.3411729188 -1.7162399542 0.2906132477
S -0.5440229322 -1.2575518119 0.4840462349
P -0.6229542621 0.6999055563 -0.2538390512
O -1.5639465240 0.9122753046 -1.3821351996
O -0.8864338646 1.7464114581 0.9141941322
C -0.0876250140 1.7711445614 2.1519565989
C 0.8379518603 2.9633435044 2.1392110835
O 0.9569155714 1.0046281191 -0.5653392170
C 1.6813742356 0.2360023559 -1.4576117675
C 1.3754876352 0.2296876180 -2.8132683884
C 2.1443935487 -0.5130859140 -3.7016790012
C 3.2237055564 -1.2361447085 -3.2098696490
C 3.5584845736 -1.2390035103 -1.8621029592
C 2.7733533182 -0.4960508283 -0.9879386490
Cl 3.1581331510 -0.4825924305 0.7134678851
Br 4.2943185921 -2.2585898279 -4.4220381726
H -2.0326016243 -0.7391514623 2.9648255615
H -3.7678533809 -0.6370849273 3.2968389730
H -3.0206913095 -2.2098307764 2.9635807645
H -4.3001776146 -1.3321806039 0.9719110047
H -3.2901463076 0.1037307603 0.9492344647
H -2.5967412548 -1.5829444809 -0.7627727964
H -2.3408038165 -2.7876298330 0.5185869480
H -0.8227184686 1.8332405801 2.9576093107
H 0.4596039618 0.8278991210 2.2493873590
H 1.3765612330 3.0009826759 3.0915519191
H 1.5693235937 2.8861849226 1.3307187565
H 0.2730207513 3.8925420007 2.0254605723
H 0.5323234595 0.8121558992 -3.1675168552
H 1.9037656394 -0.5180758485 -4.7577811912
H 4.4040171062 -1.8041147290 -1.4898817393
