82
CONF10
C -3.8965728190 3.5658856920 -0.4122901103
C -4.1226359187 2.4658318461 -1.4121080756
C -4.2366188503 2.7259850028 -2.7170054504
C -4.2754888484 1.0619417101 -0.8773932120
C -5.6513551245 0.8914706110 -0.1348665331
C -5.3457204541 0.2381517204 1.2320700638
C -3.9929217000 -0.4554414096 1.0196512514
C -3.2482947151 0.6111309003 0.1867018086
C -1.8537113817 0.1525985822 -0.2432787045
C -1.1207682056 1.1388555627 -1.1510729982
C 0.2138669563 0.5662570868 -1.6325421438
C 1.1135127701 0.1502580729 -0.4619565416
C 2.5950221966 -0.1865276117 -0.8770446377
C 3.1949530870 1.0783303948 -1.5375732839
C 4.7149494826 1.0242013597 -1.6854312282
C 5.4143475860 0.7817470247 -0.3572455716
C 4.9346858111 -0.5083148856 0.3541476980
C 3.3796692232 -0.4341360145 0.4471985165
C 2.7436597043 -1.5700192689 1.2502209456
C 1.3166878168 -1.2056550980 1.6602475212
C 0.3901021588 -0.8788681539 0.4713829296
C -0.9738518675 -0.2248792436 0.9984783209
C -1.7545700336 -1.2051352407 1.9152490351
C -3.1743781044 -0.7415384468 2.2784619715
C -0.6917332328 1.0322653913 1.8566186782
C 0.1056035518 -2.2045931992 -0.2635506540
C 5.4696626420 -1.7612356829 -0.3553516655
C 5.5324711058 -0.4911062508 1.7732895600
O 6.8388259338 0.8274955631 -0.5123010282
C 2.6914387083 -1.3406318390 -1.8986577487
C -4.2302088652 -1.7500301111 0.2267069945
O -4.9528664500 -2.6570709662 1.0729025578
H -4.5695126730 3.4714897134 0.4481259223
H -2.8742727829 3.5302587223 -0.0172638308
H -4.0485062812 4.5482393285 -0.8651699400
H -4.1803773638 3.7398293719 -3.1017077397
H -4.3857155528 1.9286845318 -3.4397450728
H -4.2370457167 0.3782712199 -1.7345673349
H -6.1569662508 1.8542882278 -0.0191110080
H -6.3192629016 0.2678480161 -0.7361890471
H -5.2346363118 1.0067513430 2.0070854580
H -6.1270810226 -0.4531488205 1.5581870848
H -3.1359663899 1.4635571060 0.8683211594
H -1.9937497457 -0.7613075293 -0.8340975273
H -1.7475626722 1.3844820652 -2.0140751698
H -0.9471432965 2.0844403566 -0.6200216209
H 0.7181113954 1.3175694044 -2.2471411473
H 0.0132512553 -0.2854842270 -2.2938584314
H 1.2428794845 1.0527097156 0.1480797309
H 2.9330847687 1.9564108979 -0.9294163771
H 2.7514376818 1.2367037989 -2.5263037045
H 5.0074408777 0.2421197255 -2.3999696868
H 5.0808258753 1.9693300881 -2.1027435900
H 5.1865396450 1.6231105353 0.3135718220
H 3.1980507278 0.4820753320 1.0372490595
H 3.3210212173 -1.7601321946 2.1599710302
H 2.7585836233 -2.5079526560 0.6833245432
H 1.3823495333 -0.3364156817 2.3238557008
H 0.8819874673 -2.0226132101 2.2483227819
H -1.8372614685 -2.1876984010 1.4452604928
H -1.1864729209 -1.3597561912 2.8393068668
H -3.6617069148 -1.5093420498 2.8877987485
H -3.1367109754 0.1721171949 2.8850748950
H -1.6021850775 1.6103240753 2.0243735145
H 0.0333840330 1.7161139227 1.4144299887
H -0.3209477464 0.7514723867 2.8458561778
H 1.0330919599 -2.6904060177 -0.5596941095
H -0.4891343336 -2.0824847177 -1.1703620036
H -0.4160439645 -2.9101120817 0.3868316924
H 5.0215741236 -2.6647410302 0.0690510867
H 5.2746890234 -1.7705332850 -1.4298380360
H 6.5515020822 -1.8403892978 -0.2028253025
H 6.6001135838 -0.2622791443 1.7140766904
H 5.4257814285 -1.4573880214 2.2742033005
H 5.0516780008 0.2721676518 2.3959967554
H 7.0739675698 0.2101439079 -1.2148673580
H 2.8345376820 -2.3189947308 -1.4368620141
H 1.7907451322 -1.3940606010 -2.5150835868
H 3.5287737514 -1.1925619374 -2.5844676442
H -4.8106548243 -1.5348565200 -0.6818253356
H -3.2811449714 -2.2054002870 -0.0853352888
H -5.1231043093 -3.4596729989 0.5705293672
