51
CONF65
C 2.1926073995 -0.2484541153 1.3513801156
C 1.2290818615 0.8264848391 0.9759690186
C -0.0268224735 1.0242123781 1.5231959727
N -0.5537225817 2.1522903161 0.9637215167
N 0.2839320251 2.7041197975 0.0723497048
C 1.3709638209 1.9123140073 0.0709956279
C 2.4953828832 2.2369467797 -0.8086282485
C 2.7674810037 3.5709038491 -1.1429878252
C 3.8185293791 3.8851394368 -1.9934981569
C 4.6228678183 2.8775102730 -2.5225999845
C 4.3581615900 1.5499730908 -2.2016442384
C 3.3021451622 1.2306033298 -1.3548338978
C -1.8655462113 2.7201367552 1.1928095293
O -0.6802060110 0.3496528379 2.5018910814
C -1.6504510942 -0.6252770574 2.0037450670
C -0.9555708623 -1.8202033008 1.4191104004
C -0.1747439317 -2.6174236648 2.2588415813
C 0.5783318878 -3.6694536683 1.7592310950
C 0.5590083138 -3.9393613853 0.3919728402
C -0.2339177442 -3.1818252793 -0.4574594063
C -1.0022687325 -2.1340392410 0.0554506131
N -1.8214370503 -1.3747932754 -0.8289517485
C -3.2101198519 -1.4240706736 -0.8624922764
O -3.8951376922 -0.9490702788 -1.7371743728
O -3.6832376474 -2.0325879737 0.2566736710
C -5.1223687320 -2.0306962078 0.3526553511
O -1.2592797565 -1.1656490992 -2.0940996752
C -0.7950180333 0.1947989330 -2.1926933096
H 2.1227972518 -1.1172807868 0.6853799241
H 1.9814328921 -0.6036968423 2.3633762013
H 3.2216746008 0.1207034391 1.3201671656
H 2.1419401744 4.3516336981 -0.7247408859
H 4.0176334168 4.9233856327 -2.2405962392
H 5.4471556204 3.1262537186 -3.1832032841
H 4.9702309818 0.7567787327 -2.6196205529
H 3.0848126772 0.1907101446 -1.1366318896
H -2.2306333739 2.3809135800 2.1649431941
H -2.5700946421 2.4158137714 0.4091796874
H -1.7829744543 3.8088814799 1.1913922626
H -2.2358564936 -0.9018395738 2.8844411421
H -2.3063807686 -0.1360925950 1.2804006167
H -0.1398224435 -2.3763282234 3.3175758399
H 1.1854802612 -4.2706800597 2.4275951432
H 1.1503270287 -4.7545263523 -0.0123708330
H -0.2690611354 -3.3889701512 -1.5203533541
H -5.5608541061 -2.5676886094 -0.4918150098
H -5.5051481341 -1.0066746534 0.3648622814
H -5.3467793157 -2.5386792398 1.2905574693
H -0.0499574579 0.4088845661 -1.4198165855
H -1.6366118860 0.8921224792 -2.1215937031
H -0.3379554434 0.2641943202 -3.1820588483
