39
CONF90
C 7.0916750171 2.5768206929 2.1598545762
C 6.5741240046 1.2299756459 1.6601013649
C 6.7275538228 1.0779341534 0.1463691483
C 6.2783270335 -0.2855277436 -0.3912511444
C 4.7653888090 -0.5480013008 -0.3166880397
C 4.4261230293 -2.0408912366 -0.4408946774
C 4.7117398658 -2.8343904238 0.8317414301
C 4.0637439032 0.2529622700 -1.4070959648
O 2.6269065184 0.3374868229 -1.1582702638
C 2.2497354396 1.3005965007 -0.3062604987
O 2.9771742349 2.1271360367 0.1940029680
C 0.7629083510 1.3000747970 -0.1024082762
C 0.0862333166 2.4445864568 -0.5053278658
C -1.2902162990 2.5332204041 -0.3696284522
C -2.0175891433 1.4787870683 0.1929182404
C -1.3322353429 0.3345947497 0.6376222564
C 0.0579219120 0.2506021355 0.4858671328
Br 1.0242160455 -1.2381177455 1.1609378621
Br -2.2860334539 -1.0889764826 1.4396643478
Br -3.8945935902 1.6075050461 0.3650800321
Br -2.1260430199 4.1254449023 -0.9754272229
H 6.9784719632 2.6719379311 3.2438389467
H 8.1528739230 2.7056020155 1.9199818810
H 6.5409265963 3.4003325108 1.6930838714
H 7.1129618836 0.4138014003 2.1605186805
H 5.5193158253 1.1276450722 1.9406151078
H 6.1749616431 1.8877779085 -0.3476631872
H 7.7830616951 1.2261164805 -0.1175986394
H 6.8038694941 -1.0702667688 0.1663890931
H 6.5977518627 -0.3972301467 -1.4378646956
H 4.3874893976 -0.1881724462 0.6489858065
H 4.9916383549 -2.4625921020 -1.2840258778
H 3.3643195154 -2.1434270803 -0.6934397243
H 4.1228007805 -2.4443629684 1.6696908014
H 4.4554406927 -3.8902987691 0.7042512978
H 5.7663704413 -2.7838083897 1.1197233311
H 4.1388446037 -0.2514058208 -2.3751088255
H 4.4572991162 1.2688055112 -1.4877613262
H 0.6451898786 3.2695169215 -0.9300045090
