33
CONF242
C -4.0416497394 -2.4357181983 0.6825929904
C -3.1467153228 -1.2587779103 1.0717521808
C -1.7255419054 -1.7288525635 1.3459347776
S -0.5770634856 -0.3741542091 1.8864554470
P -0.3342264773 0.5538478365 0.0324036124
O -0.5064094159 -0.3223928859 -1.1537251869
O -1.2486190155 1.8640111604 0.0665773812
C -1.6993635597 2.4549881302 -1.1949093248
C -0.5853221687 3.2014979347 -1.8952028024
O 1.1424577014 1.2531378285 0.1797596218
C 2.2821720182 0.4768364226 0.2547122665
C 2.6550986080 -0.3647802883 -0.7878641482
C 3.8348249337 -1.0947742576 -0.7127154916
C 4.6367695538 -0.9641382615 0.4138057141
C 4.2885515625 -0.1278518379 1.4656534990
C 3.1008473172 0.5900709525 1.3804613749
Cl 2.6335755337 1.6329299503 2.6924735669
Br 6.2656946392 -1.9547032106 0.5269031047
H -3.6698456314 -2.9277253344 -0.2219244582
H -4.0820504733 -3.1835600833 1.4817271346
H -5.0638193316 -2.0999022141 0.4864810362
H -3.1318882781 -0.5205189711 0.2617598139
H -3.5427713719 -0.7516086398 1.9583994892
H -1.2828914186 -2.2048407110 0.4666814153
H -1.6981816077 -2.4415222199 2.1777890446
H -2.1097068360 1.6588758013 -1.8247540813
H -2.5059314593 3.1268874697 -0.8923799787
H -0.1353137507 3.9419478998 -1.2287056821
H 0.1949636992 2.5163302954 -2.2380635406
H -0.9918368318 3.7190622015 -2.7702565742
H 2.0017371392 -0.4490599536 -1.6487715436
H 4.1246220053 -1.7525567827 -1.5227285816
H 4.9178313584 -0.0329851494 2.3411053347
