28
CONF31
O -3.0128202881 0.5322951660 -2.7148411910
C -1.7088726646 -0.0269084023 -2.5029570734
C -1.7010847232 -0.5156844351 -1.0698294543
O -0.3872455093 -1.0048105457 -0.7698566599
C -0.1834682676 -0.9301923160 0.6500464271
C -1.2647351059 0.0156229449 1.2073816893
C -1.9506454244 0.5859317348 -0.0328917792
O -3.3263688522 0.8277118057 0.2287040585
N 1.1936149226 -0.4796667153 0.8745142279
C 1.5779425235 0.7638726223 0.4408661830
C 2.8339222115 1.2387590100 0.5764084221
C 3.8463225435 0.4205330661 1.1949968150
O 5.0198120969 0.7325463574 1.3804122407
N 3.3791092002 -0.8384707843 1.5977392660
C 2.1069067787 -1.3575977382 1.4662528122
O 1.8156879451 -2.4829414799 1.8444296599
H -3.0331822776 0.9250136862 -3.5952217594
H -1.5135595497 -0.8568753315 -3.1954227137
H -0.9242589563 0.7337538818 -2.6266796533
H -2.4528720990 -1.3102743931 -0.9313564633
H -0.2441152436 -1.9271537228 1.0907877016
H -0.8481005874 0.7794085667 1.8669386021
H -1.9971659096 -0.5672579368 1.7731046882
H -1.4571544719 1.5119801541 -0.3684996135
H -3.7171964919 1.1130290830 -0.6096849592
H 0.7964232096 1.3492413581 -0.0313328954
H 3.0994775790 2.2260972911 0.2247104389
H 4.0536280149 -1.4579623347 2.0312809830
