48
CONF17
C -3.1537139935 3.1222178846 -0.7089902747
O -2.7036405489 2.1963881685 0.2984651499
N -3.0288442052 0.9108519351 -0.0829650105
C -2.6161854888 0.0197440798 0.7526067497
C -3.0305384492 -1.3705564583 0.5066958880
C -4.3451325279 -1.6773215271 0.1366422633
C -4.7339478680 -2.9943040475 -0.0782672221
C -3.8162669023 -4.0302778375 0.0790620540
C -2.4999577976 -3.7476486837 0.4356777348
C -2.1284452922 -2.4309336904 0.6357679698
O -0.8040660668 -2.1705940222 1.0197330800
C 0.0251651542 -1.6488325009 0.0873834174
C 1.2852647174 -1.2470590817 0.5127218473
C 2.1158010016 -0.6622945333 -0.4315071338
N 1.7462510733 -0.5240114551 -1.7005499544
C 0.5263773162 -0.9634920551 -2.0090644762
N -0.3575075847 -1.5176236280 -1.1782570040
O 3.3321491284 -0.2413196997 -0.0096383314
C 4.0624330433 0.5787258381 -0.8670992526
C 5.1905549389 0.0613903665 -1.4844871064
C 5.9798761524 0.8890345330 -2.2766505389
C 5.6348363611 2.2270580694 -2.4468681238
C 4.5043439109 2.7483625898 -1.8237337075
C 3.7210908452 1.9205787819 -1.0288171046
Cl 2.3046378536 2.5590388691 -0.2249038305
F 1.6630048241 -1.3690076959 1.7944893403
C -1.8183635561 0.3482082948 1.9681586716
N -2.3660273651 0.0589310296 3.0960543942
O -1.6283902594 0.3460013889 4.2622042486
C -0.2095998966 0.4438087532 4.0351668675
C 0.0549282326 1.4062796498 2.9065990590
O -0.6229770131 0.9163591857 1.7188887770
H -4.2364813470 3.0418138593 -0.8453997915
H -2.8938991672 4.1091117841 -0.3232923269
H -2.6355592628 2.9387100344 -1.6551628737
H -5.0609434212 -0.8677809143 0.0442844784
H -5.7601838206 -3.2133917316 -0.3534288892
H -4.1195459704 -5.0599791993 -0.0780504704
H -1.7593148532 -4.5324957661 0.5446849952
H 0.2178760678 -0.8571311151 -3.0471261347
H 5.4327497880 -0.9856953321 -1.3369608968
H 6.8621219620 0.4852400098 -2.7612165539
H 6.2462788127 2.8761258149 -3.0644056919
H 4.2310413759 3.7903652588 -1.9461779369
H 0.1890430335 -0.5503504087 3.7975621999
H 0.2181062827 0.8043893961 4.9732934572
H -0.3290491828 2.4056375076 3.1358346905
H 1.1146508539 1.4577274805 2.6497692770
