37
CONF628
C -3.0676931094 -2.2507823683 -2.3056573548
C -2.4328836266 -0.9554778292 -2.7603958621
O -1.0837023782 -0.7882211986 -2.2124953252
P -0.9104803972 -0.4151341095 -0.6791387326
O -1.9618497487 0.4042846274 -0.0371717447
O -0.6067953220 -1.8314400988 -0.0098278987
C -0.5520034194 -1.9271526636 1.4545517957
C -0.2778081808 -3.3713484327 1.7947188976
O 0.5540230277 0.2936866207 -0.7730569738
P 1.1355503478 1.4390250325 0.2205302159
O 0.9607298409 1.1592809936 1.6647020578
O 2.6433385646 1.5555030641 -0.2837920262
C 3.6803596159 0.7448102179 0.3596383629
C 3.5770511566 -0.7160220284 -0.0213789637
O 0.4561857783 2.7412425787 -0.3769146384
C 0.2261572056 3.8998847772 0.4956972000
C -1.1601314046 3.8350246155 1.0917437105
H -4.0267644661 -2.3769075892 -2.8182851406
H -3.2564297328 -2.2439931956 -1.2281300388
H -2.4273453396 -3.1034391163 -2.5474344754
H -2.2769092797 -0.9420543053 -3.8409982934
H -3.0327304473 -0.0859523082 -2.4738340919
H -1.5112531257 -1.5854488490 1.8560045896
H 0.2395851554 -1.2638663366 1.8190528510
H -0.2354643308 -3.4836178416 2.8822714263
H -1.0695597948 -4.0193559011 1.4087691475
H 0.6789227418 -3.6945206628 1.3752614353
H 3.6070419000 0.8870392001 1.4424522767
H 4.6138194922 1.1852928586 0.0027108894
H 3.5861953837 -0.8368832614 -1.1080548225
H 4.4334579709 -1.2542214733 0.3974518122
H 2.6637732430 -1.1700440895 0.3748999105
H 1.0001508486 3.9315434849 1.2697344869
H 0.3502354429 4.7632906504 -0.1620965733
H -1.3388657192 4.7366256048 1.6869477810
H -1.9154138581 3.7793114266 0.3034754161
H -1.2624932200 2.9600375831 1.7380491112
