51
CONF17
C 1.3253293414 1.5623902757 2.0378728573
C 1.8794553692 1.7267160055 0.6467424949
C 1.1626185120 2.4518900074 -0.3244915617
C 1.6876593375 2.6392581902 -1.6020483377
C 2.9367836228 2.1324133896 -1.9335680736
C 3.6492999104 1.4101188350 -0.9883454089
C 3.1315047773 1.1867424008 0.2930728362
C 3.9394430759 0.3740283822 1.2355296849
C 3.4233074708 -0.7904626509 1.8150097974
C 4.2020474027 -1.5673905989 2.6646689121
C 5.5117005923 -1.1925550437 2.9525808544
C 6.0377177368 -0.0384590915 2.3800826200
C 5.2591026040 0.7359807626 1.5264062406
C -0.1894227021 3.0280655591 -0.0115516569
O -1.1489118355 1.9742263964 0.3051975424
C -1.6354008799 1.3019082984 -0.7669218090
O -1.4184988102 1.6104546862 -1.9179413835
C -2.4325897082 0.1379127841 -0.3153295131
C -3.3339904908 -0.5521285962 -1.3356209614
C -2.0947127969 -1.2586932533 -0.8149766970
C -0.9582733410 -1.4558242537 -1.7924100219
C -2.2345770400 -2.3825576089 0.1873587567
C -4.6775182293 -0.9565964769 -0.9379881948
C -5.7518302681 -0.9999146181 -1.7292625400
C -7.1096164174 -1.4406142665 -1.2567601864
F -8.0387194191 -0.4733431539 -1.4196830399
F -7.5462990878 -2.5269699283 -1.9328261493
F -7.0901175015 -1.7645103942 0.0562880980
Cl -5.7271557353 -0.5632100037 -3.4165779120
H 0.5868138439 0.7548683435 2.0829994577
H 2.1167705306 1.3352887982 2.7533014947
H 0.8127476562 2.4694939119 2.3692189059
H 1.0991868291 3.1737186496 -2.3409414424
H 3.3426184878 2.2814957714 -2.9286811406
H 4.6141387128 0.9812660023 -1.2417557138
H 2.4072484982 -1.0935861890 1.5812480629
H 3.7877569689 -2.4719049912 3.0988533332
H 6.1189068892 -1.7979091390 3.6176281316
H 7.0569012941 0.2625915256 2.6010705000
H 5.6674525582 1.6418393318 1.0880945368
H -0.5652863617 3.6116131842 -0.8549660670
H -0.1796777766 3.6522276588 0.8850931005
H -2.7855475987 0.1937305683 0.7093608196
H -3.2298361440 -0.1526480236 -2.3396134938
H -0.0027000518 -1.5107222160 -1.2578210630
H -1.0997052797 -2.3992122958 -2.3301969317
H -0.8974626859 -0.6444388654 -2.5181971274
H -1.2801270338 -2.5380677400 0.7011389913
H -2.4985510690 -3.3156433688 -0.3223052450
H -2.9917295639 -2.1838321217 0.9489767508
H -4.8382540196 -1.2555388663 0.0929862991
