33
CONF3
C 0.2336920356 0.0671568309 -2.4280790573
C 0.2508398080 -0.5620889828 -1.0229389948
C 0.6451591099 -2.0436670493 -1.1673991485
C -1.1480347379 -0.3877382132 -0.4224320848
C -1.5598787393 0.8888594576 -0.0265783869
C -2.8307543437 1.1063737789 0.4730876216
C -3.7565271308 0.0622839028 0.6084357462
C -3.3218169612 -1.2039720827 0.2106154456
C -2.0504873901 -1.4399104387 -0.2952644970
Br -4.5513276772 -2.6655912821 0.3881395380
O -4.9817975300 0.3199810798 1.1049573500
Br -3.3470801960 2.8584861515 1.0056469921
C 1.2765621058 0.1015894287 -0.0985814421
C 2.2579215120 0.9725750492 -0.5629822085
C 3.1891328862 1.5002725119 0.3214158449
C 3.1961152640 1.1981506454 1.6849977391
C 2.1977551498 0.3204862530 2.1306360337
C 1.2614773785 -0.2127952264 1.2641155778
Br 2.1344136097 -0.1281133994 3.9785460438
O 4.0843401636 1.6973679518 2.5660543270
Br 4.5321836739 2.7039455180 -0.3319368169
H -0.5587613807 -0.3999644715 -3.0189604665
H 0.0321251955 1.1413600922 -2.3867410324
H 1.1824987009 -0.0964625567 -2.9491740213
H 0.5947285470 -2.5692938373 -0.2096311574
H 1.6742476813 -2.1072048778 -1.5310041128
H 0.0013118569 -2.5571184016 -1.8886862588
H -0.8723643825 1.7247734928 -0.0935404252
H -1.7833788085 -2.4487903048 -0.5799254546
H -5.4827834253 -0.5103845624 1.1327602941
H 2.3126808367 1.2548822260 -1.6058735310
H 0.4962644131 -0.8715505116 1.6596197607
H 4.6915428645 2.2861021295 2.0907004702
