68
CONF124
C 1.1679658194 -4.6247194623 -0.6547349545
C 0.8254010376 -3.4668228605 -1.5896755413
C 1.6969475855 -2.2027891405 -1.4046353337
C 1.1918261905 -1.1035294488 -2.3573332529
C 1.5758575120 -1.6933946200 0.0313040761
O 0.2899945828 -1.5222386807 0.3964145258
C 0.0320070945 -1.1047792051 1.7793038784
C -0.0040028769 -2.3647013112 2.6288553456
C -0.2670298820 -2.0411681140 4.0978056992
C -1.4251385804 -1.0981301468 4.2041856719
C -1.9025416188 -0.3574006680 3.1871664892
C -3.0429882882 0.5261978244 3.3809506004
C -3.4143842514 1.4456843393 2.4776315418
C -2.6500562799 1.7093923139 1.2135581867
C -1.2251766664 1.1147274907 1.3050266756
C -1.2999923905 -0.3565817469 1.7910181502
C -0.4277652853 1.2983473834 0.0122148575
C -0.3219911062 2.7509513818 -0.4544614862
C 0.5860361788 2.8925640377 -1.6597928392
C 0.8297162561 4.3302101072 -2.0918686384
C 1.4737462072 4.4145105961 -3.4856023367
C 1.8011943969 3.0114560679 -4.0211840098
C 0.5784027105 2.1407896192 -3.9430508754
O -0.0633379186 2.1592032572 -2.7565190004
O 0.1262389039 1.4759099936 -4.8530011973
O 0.5227585729 5.0608229262 -4.3479760638
C -3.4561258457 1.2395977222 -0.0106302720
C -0.5072926682 -3.3165717922 4.9123911887
O 2.5165304326 -1.4526890833 0.7645026178
C 3.1687891816 -2.4941191750 -1.7084958319
H 0.4826441500 -5.4618791725 -0.8179556068
H 2.1852668402 -4.9914096447 -0.8188534794
H 1.0813572967 -4.3277870301 0.3967422968
H 0.9418616758 -3.7848756620 -2.6334013990
H -0.2251270037 -3.1869355920 -1.4593737721
H 0.1325093912 -0.8899738366 -2.1968988243
H 1.7585882068 -0.1761695765 -2.2202404187
H 1.3275047245 -1.4359922241 -3.3917612880
H 0.8484427512 -0.4483784963 2.1020931290
H 0.9424555685 -2.9047617884 2.5212265146
H -0.8075098352 -3.0133260787 2.2534924989
H 0.6262102950 -1.5444330823 4.5115947796
H -1.9086034020 -1.0140763458 5.1778474330
H -3.6032769216 0.4126949913 4.3071546338
H -4.3002875966 2.0525291198 2.6559535594
H -2.5463473943 2.8003697607 1.1276557149
H -0.7034635221 1.6751925073 2.0971287365
H -1.9847523037 -0.9060543433 1.1271307449
H -0.8592738697 0.6842851497 -0.7842348564
H 0.5927710911 0.9305250084 0.1670083369
H -1.3011427556 3.1715301437 -0.7113018623
H 0.0935844879 3.3726787329 0.3494130117
H 1.5397327565 2.3859488862 -1.4577391463
H 1.4624758619 4.8121672641 -1.3408478132
H -0.1242511757 4.8673791259 -2.1166441212
H 2.3998372463 5.0018937672 -3.4515432650
H 2.1473376717 3.0504446211 -5.0560042433
H 2.5999954416 2.5684849186 -3.4120654665
H 0.9329738391 5.1657133497 -5.2165636326
H -3.5590129425 0.1499613965 -0.0242277854
H -2.9883907551 1.5539780764 -0.9484504066
H -4.4635134375 1.6668186660 0.0213213517
H -0.6663214543 -3.0800639754 5.9692740638
H 0.3510130673 -3.9920703083 4.8368983783
H -1.3939345686 -3.8433054194 4.5425080070
H 3.5972144044 -3.2128990287 -1.0063231722
H 3.2528192200 -2.9010073943 -2.7212986424
H 3.7630241579 -1.5779246896 -1.6535209602
