30
CONF1
O 6.1852982778 -0.4260221181 0.6538566672
S 5.1391294097 -0.2221322280 -0.5898382610
O 5.2057009379 1.1571576944 -1.0546777475
O 5.2924726383 -1.3880691755 -1.4339422841
C 3.5116436002 -0.4071540893 0.4066322104
F 3.3956649491 -1.6951565127 0.7621114668
F 3.6288314323 0.3579401956 1.5086338606
C 2.2768946351 0.0468742946 -0.4341039787
F 2.2568219880 1.3960565371 -0.4629262690
F 2.4280058023 -0.4278206961 -1.6896857211
C 0.9153030067 -0.4748249200 0.1474846919
F 0.9539544155 -0.3514281116 1.4943522777
F 0.7824424439 -1.7792659377 -0.1763204876
C -0.3274121972 0.3158538935 -0.3953741914
F -0.3980860088 1.5000540736 0.2525016821
F -0.1537822781 0.5382504855 -1.7165498454
C -1.6805983204 -0.4534965285 -0.1893616729
F -1.6724302773 -1.0256777540 1.0356089732
F -1.7772365002 -1.4172179768 -1.1311893374
C -2.9377469336 0.4810615451 -0.2933302121
F -3.0585582857 1.1721922448 0.8624062553
F -2.7548356348 1.3518648756 -1.3113199855
C -4.2678575870 -0.3055591193 -0.5510298957
F -4.3165631432 -0.6667035896 -1.8500777862
F -4.2900804523 -1.4160850532 0.2222581205
C -5.5615910168 0.5155111164 -0.2369718987
F -5.5037238289 1.7176432507 -0.8273612326
F -6.6205479147 -0.1517749077 -0.7132316735
F -5.7179298129 0.6795851297 1.0804427877
H 6.3445218539 0.4394644360 1.0690260761
