39
CONF170
C -3.5804421132 1.8816887816 -0.8543652881
C -2.9916176872 0.4767104143 -0.7785242950
C -1.4664985977 0.4101538365 -0.8884542451
N -0.7611588432 1.1733015657 0.1637907087
C -0.9274986735 0.7117712823 1.5479382156
C 0.0934515537 -0.3237143959 1.9776612394
O -0.1445468059 -1.5358177240 1.2102270997
C 0.8773977962 -2.4287657257 1.2595189999
C 0.8863266258 -3.4738895877 2.1913137933
C 1.8961798962 -4.4274615795 2.2215625875
C 2.9275377307 -4.3231165577 1.2975089444
C 2.9683496215 -3.3054503874 0.3532045137
C 1.9405974130 -2.3711675972 0.3486360781
Cl 1.9661899234 -1.0918584766 -0.8376255192
Cl 4.2099529574 -5.5101264655 1.3207946425
Cl -0.4194060669 -3.5827193992 3.3406806577
C 0.3236769443 1.9772441833 -0.0300428637
O 1.1042193625 2.2947682035 0.8518099361
N 0.5285644590 2.4739130284 -1.3612005996
C 1.7824671814 2.5930045051 -1.9380767516
C 1.5779245543 3.2322812342 -3.1279410907
N 0.2435041495 3.5461146545 -3.2924750950
C -0.3576311469 3.0836445840 -2.2253473306
H -4.6563214720 1.8634014075 -0.6596744943
H -3.1192154446 2.5458218785 -0.1154251216
H -3.4374657620 2.3212220871 -1.8466373448
H -3.3890719057 -0.1406182905 -1.5929377189
H -3.3196809042 -0.0151049693 0.1443588712
H -1.1444043003 -0.6348803810 -0.8223938320
H -1.1448765807 0.7886740637 -1.8595558319
H -1.9337708367 0.2995054902 1.6550691070
H -0.8354181825 1.5710287294 2.2192909306
H -0.0302104075 -0.5470549397 3.0459251446
H 1.1101584891 0.0358556498 1.7944101027
H 1.8763257338 -5.2275843675 2.9499908457
H 3.7761942612 -3.2395194442 -0.3639005162
H 2.6622965749 2.2230443643 -1.4366645012
H 2.3137242190 3.4887363976 -3.8763015488
H -1.4058037055 3.1869643598 -1.9861483931
