33
CONF431
C 2.6685245583 -2.6211779283 0.0448412443
C 3.8517835962 -1.8020058613 0.5801075188
C 4.5691969309 -1.0619855062 -0.5163671584
C 5.7710066336 -1.4183857057 -0.9818536871
C 3.9093705199 0.1174642120 -1.1505876205
O 4.2495171871 0.6457499214 -2.1933111763
O 2.8672395515 0.5549168414 -0.4125452400
C 2.1380873931 1.6810105483 -0.9569384193
C 1.0537714602 2.0717001100 0.0298044615
C -0.0051295418 1.0071480826 0.2252528207
C -1.2470701045 1.5148510160 1.0098365410
C -2.5026204526 0.5783766309 1.1076458139
C -2.3090005611 -0.8783173377 1.6317931030
F -1.6991138894 -1.6388807492 0.7147943348
F -1.5960702879 -0.8889399022 2.7652925275
F -3.5170400720 -1.4072342497 1.8792515581
F -3.3646323482 1.1929314716 1.9575831879
F -3.0870814980 0.4961761181 -0.1090676746
F -0.8524840549 1.8196482686 2.2717051397
F -1.6994712654 2.6535940284 0.4200926700
F 0.4878218836 -0.0597767778 0.9310521969
F -0.4491725234 0.5235674023 -0.9781943608
H 3.0191450804 -3.3881935911 -0.6526389321
H 1.9500927437 -1.9834672736 -0.4786050868
H 2.1439635289 -3.1165253267 0.8674065730
H 3.4942346882 -1.0932645698 1.3340954846
H 4.5669497937 -2.4693513675 1.0709797921
H 6.2448501235 -0.8710411882 -1.7899346017
H 6.3028876312 -2.2624708722 -0.5538960269
H 1.7235422756 1.4035943614 -1.9302499493
H 2.8205258055 2.5243225133 -1.0943388918
H 1.4820885219 2.3128517823 1.0071959258
H 0.5690296007 2.9726023255 -0.3575572310
