43
CONF15
C 1.9635159473 3.8432963172 1.9470871394
C 2.1059359413 2.4992726084 2.6288611104
O 1.7546807893 1.4015970211 1.7457770228
N 0.3822082364 1.3962862420 1.5535714222
C -0.0051396464 0.5199807745 0.7091062772
C -1.4268125991 0.3679588897 0.3663549292
C -2.1501126894 1.4502503783 -0.1847522403
C -3.4591274621 1.2613153551 -0.6298952809
C -4.0460735799 0.0045893159 -0.5410660006
C -3.3475443119 -1.0591879477 0.0051003503
C -2.0377714813 -0.8938343159 0.4719439925
O -1.3935370982 -1.9830043800 0.9690933786
C -0.8475580497 -1.8780571717 2.3073194964
Cl -4.1194969867 -2.6286937838 0.1374824856
O -1.4873106491 2.6244601944 -0.2843664545
C -2.1573302281 3.7243986657 -0.9220642669
O 0.8922845327 -0.3976451030 0.1760938104
C 0.8633998794 -0.6295807245 -1.1816917275
O 0.3192430894 0.1231140977 -1.9572023016
C 1.5874319466 -1.8640951528 -1.5365150313
C 1.8012412939 -2.1305362820 -2.8945216335
C 2.4645390116 -3.2883847219 -3.2764094002
C 2.9121747694 -4.1868569344 -2.3079615750
C 2.6970303841 -3.9259070214 -0.9557069207
C 2.0382348423 -2.7664828119 -0.5650386352
H 0.9206032182 4.0381224657 1.6814696759
H 2.2981590506 4.6334338833 2.6267919977
H 2.5747791413 3.8845040653 1.0405297298
H 3.1473475831 2.2893984838 2.8879558252
H 1.4931697036 2.4328612342 3.5350454034
H -4.0272579777 2.0751702773 -1.0602007980
H -5.0630487459 -0.1406066153 -0.8881847191
H 0.1758802802 -1.4928070814 2.2894223345
H -0.8443117061 -2.8942423845 2.7048357958
H -1.4827249910 -1.2369393499 2.9255224750
H -2.4276505274 3.4717762871 -1.9532695774
H -3.0511362249 4.0161473557 -0.3601166238
H -1.4366069704 4.5418612210 -0.9179817912
H 1.4465967015 -1.4239267664 -3.6368372112
H 2.6333096431 -3.4929140606 -4.3285312066
H 3.4292734283 -5.0927234386 -2.6084027879
H 3.0431219147 -4.6280485659 -0.2044058213
H 1.8663904698 -2.5653199005 0.4857574528
