28
CONF84
O -1.7192666158 -0.1532547252 -3.4807039122
C -1.7250143830 0.6359034021 -2.2882291975
C -1.7594510790 -0.2839416277 -1.0977862622
O -0.5157077459 -1.0236545516 -0.9899598027
C -0.1637534388 -1.1966533072 0.3689917619
C -1.2839732361 -0.5830429198 1.2063602502
C -1.9021622197 0.4374683515 0.2471070081
O -3.2299220700 0.8287264684 0.5518050373
N 1.1551825437 -0.5262538721 0.6166565717
C 1.6747372497 0.4142692233 -0.2259156614
C 2.8586027589 1.0300591181 0.0034896953
C 3.6302492667 0.7000806853 1.1716051762
O 4.7157754353 1.1816089992 1.4919600586
N 3.0275764087 -0.2763860306 1.9801087654
C 1.8209194324 -0.9110424230 1.7761138102
O 1.3647145322 -1.7441989599 2.5506461163
H -1.7122142997 0.4493364494 -4.2339838172
H -0.8359132754 1.2816074982 -2.2332877415
H -2.6207693411 1.2737287428 -2.2368804610
H -2.5846560437 -1.0047162860 -1.2144386168
H -0.0007408021 -2.2563824964 0.5806474513
H -0.9258726455 -0.1519264879 2.1419038377
H -2.0256415215 -1.3577625906 1.4333936183
H -1.3152985591 1.3645944628 0.2355965992
H -3.7733197831 0.0308924735 0.6171977692
H 1.0776916149 0.6222981870 -1.1050216567
H 3.2440791592 1.7663346767 -0.6881409475
H 3.5241492770 -0.5476918622 2.8207645340
