52
CONF4
C 1.2830375746 0.9389936995 -1.4972829022
C 1.5758992265 0.1885820974 -0.1900936239
C 1.1499673521 0.9847606457 1.0571029006
C -0.2278134848 0.5872702303 1.5877522327
O -0.4980721749 0.6663225444 2.7679539218
C -1.1843569888 0.1068212358 0.5108276508
C -0.6380425819 -1.2157453399 -0.0966766716
C 0.9069803887 -1.2055097464 -0.1241110740
C 1.6469513029 -2.0320328483 -1.1758383540
C 3.1061985925 -1.5133811569 -1.0993796410
C 3.1006574670 -0.2662321721 -0.1813388508
C 4.0221607817 0.8446617324 -0.6685794663
O 4.2532466355 1.0214755214 -1.8509866962
C 4.6222263439 1.7791910355 0.3579894206
O 5.3106327853 2.8420336115 -0.2478559835
O 3.5573852412 -0.5681672036 1.1420157504
C -1.3683816717 -1.5055998500 -1.4065664585
C -2.8844657722 -1.5822605401 -1.1412729673
C -3.3836715831 -0.3461616526 -0.4482946374
C -4.3322356898 0.4296007792 -1.0007430796
C -4.7873550900 1.6917158782 -0.4079909539
O -5.6697942714 2.3715680190 -0.9258854562
C -4.1109292408 2.1003938052 0.8305957361
C -3.1620434694 1.3458831329 1.3963597927
C -2.7048936533 0.0203228941 0.8574949570
C -3.0233848949 -1.0362501250 1.9460967732
H 1.7475428221 1.9291358821 -1.4812163942
H 0.2130337030 1.0837777238 -1.6523586431
H 1.6797029823 0.4164064487 -2.3704339368
H 1.8576897899 0.8486811993 1.8791762304
H 1.0993090273 2.0613801461 0.8408785532
H -1.1134782698 0.8690934115 -0.2769545885
H -0.9175559407 -2.0202523560 0.5951558879
H 1.1978380177 -1.5998232675 0.8639424347
H 1.2280626143 -1.8504339080 -2.1696298554
H 1.5747887891 -3.1073651202 -0.9883769168
H 3.7941004972 -2.2521235866 -0.6776335740
H 3.4915876958 -1.2439173727 -2.0848566767
H 3.8142329012 2.1529928695 1.0082345766
H 5.2841146605 1.1875646219 1.0094895875
H 5.2910343853 2.6609150831 -1.2020555035
H 3.1499449324 -1.3922025966 1.4296131133
H -1.0283294143 -2.4573856056 -1.8295021514
H -1.1624209474 -0.7261889503 -2.1503731175
H -3.0810895384 -2.4652625773 -0.5177620627
H -3.4295425054 -1.7248283705 -2.0786306123
H -4.7999837387 0.1553939622 -1.9432178677
H -4.4291045394 3.0421397349 1.2678936843
H -2.6904234213 1.6550903255 2.3252163200
H -2.7012635407 -2.0381934051 1.6548857462
H -4.1039222244 -1.0639701692 2.1113135112
H -2.5257719630 -0.7688806418 2.8799267444
