78
CONF620
C -1.0522768271 -1.3459807780 -1.4355706334
C -0.4799318980 -2.4424958608 -2.3242748163
O -1.4321655584 -3.5500300991 -2.1620510612
C -2.1271641343 -3.4155375426 -1.0006842328
O -2.9178513087 -4.2577075741 -0.6432135378
C -1.6800170222 -2.1533708730 -0.3085577703
C -2.6714446925 -1.3268360981 0.5140441747
C -4.0039004068 -1.0981760751 -0.1909848575
C -4.1871961567 -0.0163333639 -1.0552535725
C -5.4046577416 0.1411793377 -1.7134828496
O -5.7090499348 1.1547600398 -2.5810940264
C -4.6915479933 2.1327184138 -2.8362284155
C -6.4509252657 -0.7661390108 -1.5134249981
O -7.6534045240 -0.6184115853 -2.1463422918
C -6.2690059961 -1.8393755709 -0.6336692709
O -7.3469826508 -2.6640283852 -0.4916097259
C -7.1959482656 -3.7909751426 0.3815357793
C -5.0486200478 -1.9985360660 0.0259750668
C -2.0035786830 -0.0033959106 0.8742444347
C -2.6389636795 0.7675383582 1.8694259465
C -2.1334831667 2.0145558984 2.1410678617
C -1.0395900969 2.5276277557 1.4524805820
O -0.7513025114 3.7893560955 1.9001187139
C -1.7243652033 4.0840128687 2.9271988571
O -2.5836010153 2.9271692282 3.0542809990
C -0.4020462316 1.8037108903 0.4779213933
C -0.8844621477 0.5045484479 0.1954740598
C -0.1292638007 -0.3024326088 -0.8431701841
O 0.9882935357 -1.0546895022 -0.2752289674
C 1.8795116203 -0.3614624794 0.5262615507
O 2.5865620703 0.5860321092 -0.2913224284
C 3.4931668371 1.3445996545 0.5036891085
C 4.1491880286 2.4172134446 -0.3455852399
O 5.1092801643 3.1078900690 0.4774927296
C 6.0877699193 2.2499695819 1.0524061950
O 5.5132848628 1.1969925124 1.8128996492
C 4.5840378575 0.4204626874 1.0416016437
C 3.9597940589 -0.6488740044 1.9143142265
O 4.9023903300 -1.5919019596 2.4264608520
C 2.8649019856 -1.3693777095 1.1151011852
O 2.1341784489 -2.2568686693 1.9539426295
C 7.0601062190 1.7236177127 0.0257236907
C 7.7632594587 0.5484634263 0.0402849115
C 8.6801486598 0.4324300021 -1.0402400719
C 8.6758217724 1.5260781481 -1.8616098213
S 7.5387454471 2.7176649134 -1.3218394307
H -1.8405901965 -0.8229528329 -1.9898490878
H 0.4993989460 -2.7923819929 -1.9872995561
H -0.4538863806 -2.1947878226 -3.3859535004
H -0.8698358469 -2.4778789228 0.3645173465
H -2.8843667400 -1.8681953986 1.4428689002
H -3.3951919613 0.7098977622 -1.1890714257
H -4.4139161616 2.6555491059 -1.9138487313
H -5.1295845730 2.8376859770 -3.5428551570
H -3.8048049937 1.6650021156 -3.2793546689
H -7.5950836499 0.1716324335 -2.7044889611
H -6.9969715095 -3.4685785855 1.4103536417
H -8.1467833360 -4.3231451826 0.3416614074
H -6.3893008083 -4.4492586128 0.0380374471
H -4.8975335133 -2.8289468130 0.7032674323
H -3.5158124706 0.3888973826 2.3848594082
H -2.3252010748 4.9465253682 2.6205220291
H -1.2073859390 4.2555179518 3.8769193091
H 0.4509489942 2.2041650831 -0.0605658848
H 0.2699459369 0.3680029336 -1.6132566253
H 1.3659588810 0.1823015993 1.3386937690
H 2.9639749154 1.8169322891 1.3485147718
H 3.4308293647 3.1706375903 -0.6763737893
H 4.6312823262 1.9611006578 -1.2220685138
H 6.6080161954 2.8774611636 1.7840902207
H 5.0983109070 -0.0499975803 0.1879692473
H 3.5058796287 -0.1785380433 2.7962108901
H 5.3646954959 -1.9928684349 1.6758386667
H 3.3330507425 -1.9143469002 0.2775217414
H 2.7864126781 -2.7817101489 2.4393873109
H 7.6233257576 -0.2084270099 0.8035240501
H 9.3160028553 -0.4299315408 -1.2034518573
H 9.2605213886 1.7024536542 -2.7548279372
