27
CONF5
C -4.9039579389 0.5589089331 -0.6125706954
C -4.0292087197 0.0596716203 -1.5793077057
C -2.6724087920 -0.0511411603 -1.3178437081
C -2.1713925659 0.3426343642 -0.0676323213
C -3.0507225444 0.8429776429 0.8997412519
C -4.4083126426 0.9499888511 0.6280891908
N -0.8146649140 0.2769777229 0.3127411718
N -0.0342563094 -0.1835032790 -0.5820664349
C 1.3048896712 -0.2775451470 -0.2847734507
C 1.9650665293 0.0844873016 0.9425531982
N 3.2875852567 -0.0636310742 1.1127824979
C 4.0194300111 -0.5527910600 0.1109358062
C 3.4752703238 -0.9364942326 -1.1366743082
C 2.1218393081 -0.7913720952 -1.3069003061
N 5.3683228369 -0.6339566489 0.3325262893
N 1.2698475495 0.5868544188 1.9791054904
H -5.9643030047 0.6415826704 -0.8278075208
H -4.4144593026 -0.2454299555 -2.5476642068
H -1.9873497308 -0.4371800841 -2.0629533506
H -2.6474521166 1.1434752333 1.8618323216
H -5.0813833648 1.3392446925 1.3854056629
H 4.1107702305 -1.3229560850 -1.9255196098
H 1.6368135276 -1.0676515213 -2.2376396058
H 5.9147298453 -1.2357054130 -0.2587591179
H 5.6678940461 -0.5459260712 1.2899553307
H 0.2665570541 0.6953528357 1.8630941541
H 1.7708550525 0.8231275404 2.8187262784
