21
CONF1
F 0.8151503637 -1.7031348889 -0.2657068977
C 0.3223055439 -0.4647919066 -0.0139273608
F 0.4754530139 -0.1926139265 1.3068559037
C 1.1327275726 0.5794072596 -0.8420032682
F 0.8367743513 1.8162140619 -0.3295765395
F 0.6222115158 0.5454195151 -2.1213181505
C 2.6302784298 0.3861991289 -0.9108059398
C 3.3902363504 0.4759178123 0.4141380773
O 3.3012751852 -0.7091849034 1.2057601200
C -1.2125686469 -0.5001416602 -0.3246415042
F -1.4156079185 -1.1655749221 -1.4846862988
F -1.6899393874 0.7609035479 -0.4529454707
C -2.0735110867 -1.2078448172 0.7728250579
F -3.3145097860 -1.3922941875 0.2975802067
F -2.1524188094 -0.4612195111 1.8804633283
F -1.5510366074 -2.4025330391 1.0856935624
H 2.8406544004 -0.5647476296 -1.4100998747
H 2.9762855233 1.1887204026 -1.5734451042
H 2.9968403042 1.2908757837 1.0289011391
H 4.4372446451 0.7085684752 0.1814275503
H 3.7623756863 -1.4133142108 0.7324902582
