39
CONF83
C 5.9361626131 0.9315151568 -0.6081463406
C 4.8506336426 -0.1230029663 -0.8085356518
C 3.4447637781 0.4433766558 -0.6141992478
C 2.3678070630 -0.6192308917 -0.8220038910
N 1.0254964420 -0.0755539351 -0.6522973301
C 0.1525114904 -0.5574894891 0.2611849092
O 0.3591383838 -1.5294778212 0.9793613382
N -1.0734444790 0.1556277975 0.3259129415
C -1.3662614511 1.4603323993 -0.1069849794
C -0.5721255836 2.5508592320 -0.4409309603
C -1.2302899090 3.7325802838 -0.7838985091
C -2.6252853692 3.8216852381 -0.7676696449
C -3.4125293949 2.7392357102 -0.3892163321
C -2.7738477900 1.5510019926 -0.0494638625
N -3.3360655837 0.3711410370 0.4118139583
C -2.3316080259 -0.4244285137 0.6274451437
N -2.3617367228 -1.7107703219 1.0994864873
C -3.4940893361 -2.5073505572 1.1962258973
O -4.6124552098 -2.2335276220 0.8477602003
O -3.1113128841 -3.6867447891 1.7594766071
C -4.1858492044 -4.6343941306 1.9056478739
H 5.8910357354 1.3532647628 0.4013289521
H 5.8184589417 1.7560244942 -1.3192566904
H 6.9341971674 0.5072487913 -0.7496527806
H 5.0051022037 -0.9519123314 -0.1058636163
H 4.9332081768 -0.5526161628 -1.8154656504
H 3.3446146498 0.8596456361 0.3962417269
H 3.2855083190 1.2741062071 -1.3163732831
H 2.4782652418 -1.4303078949 -0.0975692822
H 2.4578286324 -1.0586480058 -1.8248890107
H 0.7038994638 0.6268807667 -1.3004826055
H 0.5113938854 2.5235507164 -0.4035781766
H -0.6406051455 4.6019493234 -1.0540118932
H -3.0998930194 4.7588044229 -1.0389173345
H -4.4937181942 2.8052377401 -0.3434427507
H -1.4625103160 -2.1057940285 1.3605621692
H -3.7334503322 -5.5131346611 2.3649384599
H -4.6109566793 -4.8844030727 0.9299088773
H -4.9719894116 -4.2252826666 2.5455546785
