39
CONF1
N 1.7715354336 -0.2218283305 2.3189916795
C 2.0268251685 -1.3728195580 1.6399558969
N 2.1887310012 -2.4884640362 2.3666809181
C 2.4850189507 -3.6151911490 1.6958801287
N 2.5966712675 -4.7595874265 2.4410846162
N 2.6343503578 -3.7376893772 0.3642037533
C 2.4657510246 -2.5993076445 -0.3297450065
C 2.1646144022 -1.3731208727 0.2279451575
C 1.9945344062 -0.1267838578 -0.5944838993
C 0.5957307311 0.4630420890 -0.5313461768
C -0.5103412406 -0.3696656752 -0.7030876029
C -1.7978759572 0.1688639359 -0.6553036350
O -2.9411138797 -0.5515775928 -0.8142064846
C -2.8032648475 -1.9602802703 -1.0475743403
C 0.4256627338 1.8279954417 -0.3018403662
C -0.8645527689 2.3696393507 -0.2527872662
O -1.1406579870 3.6843773735 -0.0370679601
C -0.0283173902 4.5705112159 0.1509030019
C -1.9817869054 1.5407802549 -0.4203903127
O -3.2507417618 2.0613664850 -0.3197297729
C -3.7803299187 2.4941823849 -1.5905925971
H 1.5057651211 -0.3107579709 3.2882349311
H 1.3674369143 0.5555471026 1.8181766715
H 3.0736620266 -5.5331821124 2.0050645318
H 2.7588157381 -4.6421688611 3.4290653596
H 2.5846638639 -2.6746274791 -1.4114558023
H 2.2357274099 -0.3685300655 -1.6370000167
H 2.7144282028 0.6388767546 -0.2776157364
H -0.3546126200 -1.4289952786 -0.8685959757
H -2.2447833654 -2.1530586059 -1.9707206914
H -2.3048317589 -2.4512291937 -0.2036718651
H -3.8198316254 -2.3416842804 -1.1463493816
H 1.2972832529 2.4583045868 -0.1694828002
H 0.6181641765 4.5839958406 -0.7340954552
H 0.5562672748 4.2857936457 1.0332862061
H -0.4639036731 5.5584130012 0.3023751271
H -3.8336773643 1.6524995564 -2.2906795604
H -3.1568466657 3.2900569427 -2.0145203028
H -4.7841713422 2.8763037608 -1.3952441903
