46
CONF7
C 5.2534549146 -1.0236378965 2.5890319835
C 5.1159696912 -2.3428658286 1.8569536655
O 4.7837509723 -2.1365202497 0.4587862857
C 3.5096170056 -1.9070739197 0.1319578966
N 3.3167577512 -1.6828562627 -1.1640368550
C 2.0312318896 -1.4682901622 -1.4926234124
N 0.9922747634 -1.4801855064 -0.6289050327
C 1.3373980935 -1.7046654461 0.6355857635
N 2.5761670194 -1.9280190785 1.0943754265
N 0.3538759473 -1.7130079088 1.6062614582
C -1.0248008193 -1.4527568903 1.5374585995
O -1.6856235514 -1.4010479377 2.5569781701
N -1.5176386955 -1.2860395420 0.2611226451
S -3.0910102572 -0.6994689914 -0.0222627845
O -3.0925304317 -0.3896646399 -1.4556927871
O -4.0536799128 -1.6288843943 0.5566250894
C -3.1962468714 0.8469157166 0.9016411987
C -3.9096749580 0.8281201742 2.0930551815
C -4.1124224082 2.0172041601 2.7853041687
C -3.6254291277 3.2133949450 2.2713461770
C -2.9222365336 3.2258446841 1.0716501689
C -2.6818118819 2.0386810963 0.3791428245
C -1.8082411304 2.0842103379 -0.8324263857
O -0.7971176234 1.4330150864 -0.9733870107
O -2.2498634809 3.0011412503 -1.7107250848
C -1.4479207839 3.1270912117 -2.9065408260
N 1.7522173462 -1.2233064743 -2.7847994118
C 0.4048034532 -1.0001536429 -3.2869715949
H 4.2945125008 -0.5023757119 2.6330807281
H 5.5941224578 -1.2077983937 3.6129755295
H 5.9863425425 -0.3826760497 2.0913390926
H 6.0704890023 -2.8733059736 1.8152337527
H 4.3636966057 -2.9871022093 2.3193477808
H 0.6829802724 -1.8604402492 2.5495979866
H -0.8222925257 -1.1421601542 -0.4875106531
H -4.2975705174 -0.1138652640 2.4605892197
H -4.6604419571 2.0051846718 3.7211514969
H -3.7944718306 4.1438546827 2.8030500231
H -2.5418868697 4.1571407800 0.6666363252
H -0.4212910992 3.4005453629 -2.6501577171
H -1.9256820992 3.9105624229 -3.4935089468
H -1.4483935578 2.1804096212 -3.4529660342
H 2.5347373199 -1.2573548993 -3.4159317575
H -0.0758742401 -0.1715302464 -2.7570364417
H 0.4709005607 -0.7530975481 -4.3483861663
H -0.2211472473 -1.8931651243 -3.1734670396
