41
CONF21
C -1.6678770296 2.9753963213 -1.4558351175
C -1.4587591873 3.2909448398 0.0291790916
C -0.5270561201 4.4860270727 0.2063280184
N -0.9193180918 2.1558135061 0.8009091567
C -1.7645134632 0.9547794746 0.7976302166
C -1.4300666632 0.0973243890 2.0179946692
O -1.5344184934 0.8739234357 3.2106216053
C -0.0244120896 -0.4967508399 1.9694389825
O 0.0756947627 -1.3009555437 0.7885814976
C 1.2582828641 -1.9374139318 0.5427367603
C 2.3696864693 -1.8602444940 1.3847703634
C 3.5379832827 -2.5449998131 1.0525651500
C 3.6040521991 -3.3054629695 -0.1074841890
C 2.4858990969 -3.3779944076 -0.9371866030
C 1.3053294639 -2.7045802235 -0.6367337252
C 0.1166780445 -2.7630622970 -1.5662195156
C 0.0231230727 -1.5485274066 -2.4503652817
C -1.0741407587 -0.8169536237 -2.6265983695
H -2.0803204919 3.8422432647 -1.9828036858
H -0.7108933613 2.7144986508 -1.9244229630
H -2.3556525288 2.1361337224 -1.5973293543
H -2.4326505957 3.5344586814 0.4776635982
H -0.4019167382 4.7291690819 1.2653447155
H -0.9227839787 5.3646250697 -0.3116226927
H 0.4609980932 4.2653486589 -0.2158513505
H -0.0064499520 1.9223543404 0.4171475789
H -2.8102207765 1.2737430766 0.8899584868
H -1.6758246981 0.3476883813 -0.1146560906
H -2.1581214349 -0.7198209428 2.0909310617
H -1.1874738816 1.7467773043 2.9546801902
H 0.1404849628 -1.1068522617 2.8670982801
H 0.7264910791 0.3067953447 1.9511599629
H 2.3367079895 -1.2768362507 2.2965938288
H 4.3959835423 -2.4781128954 1.7142582907
H 4.5109892087 -3.8422719387 -0.3645215544
H 2.5251620394 -3.9748830947 -1.8449476947
H 0.2299602045 -3.6511778598 -2.2014438881
H -0.8142028173 -2.8771399545 -1.0016283123
H 0.9386881317 -1.2844407221 -2.9803159954
H -2.0010037692 -1.0579438880 -2.1112592943
H -1.0841171048 0.0390211501 -3.2943658279
