47
CONF103
C 0.4304795512 1.8068309414 2.2369311803
C -1.0091106855 2.1226098514 1.8363153450
C -1.9247676954 0.9094550414 1.9972065276
C -3.3574770964 1.1565355473 1.5629226669
O -3.4285787371 1.4484455492 0.1260875682
C -3.3958024088 0.3952968586 -0.6972915984
O -3.3437519861 -0.7657404534 -0.3506020288
C -3.4805696950 0.8369999684 -2.1610878350
C -4.9067057713 0.6833862759 -2.6615079069
O -2.6591960017 -0.0223150358 -2.9612738364
C -1.3205508650 -0.0682256504 -2.6604617019
C -0.6590472441 0.8991358077 -1.8992057485
C 0.7001774368 0.7565233498 -1.6352495105
C 1.3798406201 -0.3447675034 -2.1286607036
C 0.7392669074 -1.2996054164 -2.9060146684
C -0.6169064114 -1.1602352010 -3.1726939484
O 2.7584490459 -0.4725753868 -1.9078906191
C 3.1796994056 -0.8315186394 -0.6651736890
C 4.5654414894 -0.8029434920 -0.4512638260
C 5.0244986456 -1.1665649375 0.7950504217
C 4.0979878300 -1.5428395662 1.7771469198
C 2.7489712059 -1.5410571143 1.4576736804
N 2.2909500701 -1.1916546751 0.2478896715
C 4.5817334017 -1.9340718719 3.1330633187
F 5.2664845397 -0.9259697047 3.7400306447
F 5.4387948755 -2.9903711593 3.0819935380
F 3.5756679403 -2.2830322977 3.9652201953
H 1.0782259940 2.6810772712 2.1191035217
H 0.4846614203 1.4830851747 3.2824177160
H 0.8371312215 1.0005549561 1.6157720242
H -1.3959564441 2.9496119781 2.4457624447
H -1.0321352099 2.4642812076 0.7947877645
H -1.5196220762 0.0554786061 1.4405456039
H -1.9565815365 0.6095344354 3.0531661089
H -3.7710687034 2.0518762306 2.0329613463
H -4.0001769816 0.2982586346 1.7735920936
H -3.1577884008 1.8799583465 -2.2559471524
H -4.9585643379 0.9795237372 -3.7120744328
H -5.5733710796 1.3269841171 -2.0815994305
H -5.2329361095 -0.3551668370 -2.5606121223
H -1.1770832240 1.7675117293 -1.5116673302
H 1.2233318448 1.4979508891 -1.0401450732
H 1.2950111968 -2.1507389577 -3.2851991490
H -1.1442925476 -1.8999671667 -3.7657334770
H 5.2363920175 -0.5002322812 -1.2462610822
H 6.0881874537 -1.1580238415 1.0114731550
H 2.0006561454 -1.8304894097 2.1905027307
