52
CONF40
C 2.2824257612 2.5816680780 0.3362246343
C 2.2696787904 1.1401561509 -0.1184081576
C 3.5459245588 0.7271359027 -0.8565445443
C 3.4180506574 -0.6913651971 -1.4232179253
C 2.1574309032 -0.8054222308 -2.2946063493
C 0.9290768021 -0.2381576199 -1.5867256787
O 1.1235900463 1.0103014609 -1.0120055103
O 0.5751996787 -1.2678345025 -0.6092342445
C -0.1898103323 -0.9116609284 0.4687785256
C -1.4445326892 -0.3715955173 0.3740814259
O -2.1164232708 0.0287705595 1.4904933107
C -1.5902816355 -0.1433839515 2.7379067800
C -2.3501512851 0.3115308373 3.8007961182
C -1.8351906496 0.1290539496 5.0846795694
C -0.5953923932 -0.4852192258 5.3070913427
C 0.1466936631 -0.9306031482 4.2249604197
C -0.3463638451 -0.7726649584 2.9011443222
C 0.4132272284 -1.1766047211 1.7528505382
O 1.5567133327 -1.7092621262 1.8476583790
O 1.3419713915 -1.5102971939 4.4303347911
O -2.5977410351 0.5769493467 6.1102494395
C -2.2154558679 -0.1373680176 -0.8403132893
C -2.1649292023 -1.0583228484 -1.8986128988
C -2.9124712080 -0.8447216093 -3.0431040040
C -3.7233813610 0.3009468115 -3.1451598459
C -3.7796266160 1.2110172973 -2.0946902467
C -3.0358832075 0.9933470247 -0.9424210189
O -4.4175614353 0.4276220118 -4.3075727280
O -2.8547594810 -1.7547036589 -4.0545827071
O 2.2955751339 -0.0248224509 -3.4827882602
O 3.4740543911 -1.6668020252 -0.3802449703
O 4.6755908235 0.8113843571 0.0102005787
H 1.3460948891 2.8264001514 0.8458001430
H 3.1100403066 2.7429741689 1.0304362965
H 2.4061976695 3.2494416756 -0.5225328155
H 2.1274618616 0.4785009568 0.7471710221
H 3.7169539789 1.4284887315 -1.6814754806
H 4.2904115067 -0.8943087113 -2.0573850979
H 1.9673053350 -1.8618719097 -2.5292216371
H 0.1057320269 -0.1105480286 -2.2970966652
H -3.3102326431 0.7868411981 3.6421836953
H -0.2107432139 -0.6125684317 6.3141227499
H 1.7021253943 -1.7252441089 3.5255718376
H -2.1562778853 0.4023738061 6.9535856097
H -1.5573797064 -1.9539938454 -1.8296015905
H -4.4081077020 2.0923593246 -2.1880321595
H -3.0792523743 1.7097863750 -0.1306704248
H -4.9617933054 1.2271613096 -4.2901844519
H -3.4434839932 -1.4688856593 -4.7688249506
H 2.9917349421 -0.4233836801 -4.0205547092
H 2.6579120495 -1.6392755010 0.1567392472
H 4.6700526182 -0.0033203926 0.5367296049
