40
CONF8
C -4.7309639758 -1.3533936850 -0.2956152615
C -3.3573302173 -0.9099711858 -0.8001744512
C -2.4961464817 -2.1263885471 -1.1479521619
C -2.6297670698 0.0449443272 0.1943772702
C -2.0969263256 -0.7078435635 1.4239468011
O -2.7198691991 -1.2763137911 2.2995184569
N -0.7210314230 -0.5974173558 1.3416737037
C -0.3851802584 0.1514880740 0.2334484510
N -1.4058728606 0.5488517003 -0.4454519428
C 1.0325491542 0.4303162673 -0.0693248686
N 1.8259408887 -0.0528495520 0.8761431722
C 3.1660231343 0.1068500432 0.7956279107
C 3.9890121862 -0.4177354686 1.8188891432
C 5.3521692176 -0.2564216491 1.7428643519
C 5.9437658637 0.4277337298 0.6556499498
C 5.1652533753 0.9461495798 -0.3516433952
C 3.7600405096 0.7950034506 -0.3018575346
C 2.8986113945 1.2858190059 -1.2952797425
C 1.5265163333 1.1284411178 -1.2273782269
C 0.7848282386 1.7211120749 -2.4233861752
O 1.4358327798 2.2083097625 -3.3377070858
O -0.5278033420 1.7150218469 -2.4710693709
C -3.4998511602 1.2232821078 0.6380444577
H -5.4102231231 -0.5103347663 -0.1496378540
H -5.1821120347 -2.0212528382 -1.0359678086
H -4.6466108812 -1.9020029451 0.6472651468
H -3.4951603382 -0.3056469807 -1.7070040395
H -1.5032739314 -1.8401613795 -1.5075902188
H -2.3777603214 -2.7827387732 -0.2777410449
H -2.9820767185 -2.7085742194 -1.9361364661
H -0.0469867162 -0.9672320502 1.9979189870
H 3.5230746330 -0.9397380558 2.6480423523
H 5.9875510757 -0.6576226640 2.5258670487
H 7.0223057489 0.5407983625 0.6215246702
H 5.6109829511 1.4715390760 -1.1908059463
H 3.3138778637 1.8045803411 -2.1522786318
H -0.9898785718 1.2505554035 -1.6410884789
H -2.9003916127 1.9421836470 1.2031702223
H -4.3112435913 0.8679384390 1.2764901440
H -3.9218752842 1.7227208384 -0.2386662333
