39
CONF61
C 7.7085440762 2.8446512795 -0.4726255128
C 6.4003249556 2.1022040000 -0.7345515433
C 6.1929555122 0.9216800284 0.2138857006
C 4.8919427251 0.1692766220 -0.0583381561
C 4.5654550538 -0.9073886796 0.9836734269
C 5.6477307359 -1.9963868480 1.1124505430
C 5.9684381902 -2.7548117245 -0.1760447848
C 3.2126524242 -1.5555331998 0.7074180926
O 2.1378378270 -0.5990158476 0.9454139581
C 1.5348208422 -0.0601674284 -0.1212090477
O 1.7437844510 -0.3472054036 -1.2777072975
C 0.4529083926 0.9020385875 0.2782576458
C -0.7540215557 0.7254497478 -0.3915634051
C -1.8521478506 1.5165936219 -0.1025718646
C -1.7607557640 2.5288894745 0.8581563850
C -0.5335947121 2.7439406183 1.5096932701
C 0.5712382581 1.9282844879 1.2209486261
Br 2.2503341407 2.2930982051 2.0303673079
Br -0.3802992014 4.1443439718 2.7746011145
Br -3.2671982643 3.5987739834 1.2502697453
Br -3.4570580304 1.1673869247 -1.0531971864
H 7.7380970173 3.2373684372 0.5495801464
H 8.5695599726 2.1788905969 -0.5967085522
H 7.8360936659 3.6876778563 -1.1582917163
H 5.5543719949 2.7951223350 -0.6367182760
H 6.3802580856 1.7396401097 -1.7705991268
H 7.0509510687 0.2416230787 0.1277896544
H 6.1931951970 1.2865990934 1.2516736665
H 4.9200402339 -0.2796462861 -1.0596788411
H 4.0710901523 0.8960295912 -0.0789375509
H 4.4842196684 -0.4161645588 1.9645625539
H 5.3323247406 -2.7089924183 1.8857227600
H 6.5630015989 -1.5300075197 1.4928615699
H 6.7306878951 -3.5169444861 0.0105734640
H 5.0896263057 -3.2646898037 -0.5834439399
H 6.3544935387 -2.0875510326 -0.9523450098
H 3.0176627490 -2.3674734867 1.4142721505
H 3.1322783361 -1.9268509410 -0.3174592965
H -0.8211962897 -0.0489389565 -1.1456616881
