41
CONF137
C -4.4926102773 2.1402322646 1.8237907676
C -3.9093431038 2.5829924928 0.4846779384
N -3.4893412761 1.4747800404 -0.3869841039
C -4.4925315361 0.9220310839 -1.3035598431
C -4.8712703307 -0.5308847632 -1.0112147885
O -5.4814690992 -0.6952652409 0.2697806499
C -2.2049806982 1.0255445178 -0.3923491402
C -1.7227936604 0.1617230345 -1.4133900429
C -0.4166293762 -0.2672445313 -1.4104894724
C 0.4857591234 0.1190971426 -0.3994516870
C 0.0137026455 0.9719913084 0.6252287248
C -1.2857088445 1.4102116693 0.6304103471
N 1.7642777382 -0.3847721844 -0.5033853175
N 2.5894625247 -0.0197646269 0.3998433014
C 3.8719509222 -0.5634380890 0.2588384608
C 4.2663675807 -1.4640673195 -0.7522629199
C 5.5616301842 -1.9381080559 -0.7902385147
C 6.4732205239 -1.5160137377 0.1822499936
C 6.1083613382 -0.6269498931 1.1930926506
C 4.8091218097 -0.1569989561 1.2254449925
N 7.8380191593 -2.0183244501 0.1390448606
O 8.6293745662 -1.6350288310 1.0032276328
O 8.1427103785 -2.8051763963 -0.7600637516
H -3.7820081979 1.5226872696 2.3818440249
H -5.4111552643 1.5659703674 1.6769744794
H -4.7298124580 3.0224893370 2.4263017528
H -3.0553852030 3.2488001967 0.6360989454
H -4.6561423606 3.1599038279 -0.0701437794
H -4.1533159304 1.0047125722 -2.3457912364
H -5.3907449666 1.5366869324 -1.2071650080
H -5.6152690402 -0.8357056793 -1.7543959750
H -4.0035457394 -1.1950580334 -1.1094499266
H -4.7865678414 -0.6327614960 0.9369120530
H -2.3687932933 -0.1483954343 -2.2235996632
H -0.0550097859 -0.9127776712 -2.2052100348
H 0.6841520759 1.2697033385 1.4230149557
H -1.6157051717 2.0387814891 1.4475274178
H 3.5478266801 -1.7821798545 -1.4971752161
H 5.8775780778 -2.6305150463 -1.5605844251
H 6.8340908387 -0.3166673517 1.9338632940
H 4.4925283254 0.5349172715 1.9987371162
