49
CONF66
C -3.0944032048 -1.6215207609 -1.3509924029
C -3.1993815295 -1.3908668559 0.1424292374
C -2.4342228271 -0.2295648951 0.8059770330
C -2.0437615308 -1.7094631076 1.0440080713
C -2.2861299124 -2.2257669413 2.4488423668
C -0.7492414065 -2.2431078835 0.4680513148
C -1.5675704698 0.6866355112 0.0682041320
O -0.9226722179 0.4847039689 -0.9406557048
O -1.5522226090 1.9135823473 0.7062636594
C -0.6375102209 2.8855415926 0.1327232155
C -1.2165771879 4.1951557756 0.4243967043
N -1.6524345529 5.2410888249 0.6461590383
C 0.7483294100 2.7228569931 0.7166908950
C 1.7203641031 2.0845172847 -0.0487051637
C 2.9726624570 1.8463131827 0.5117188459
C 3.2693243517 2.2640890901 1.8059684017
C 2.2923456220 2.9172544746 2.5512692843
C 1.0274427407 3.1420029547 2.0184256498
O 3.9897599542 1.2495501978 -0.2032679850
C 3.6699007464 0.2544796640 -1.1172308244
C 2.7729366863 -0.7640335416 -0.8020705894
C 2.5447927835 -1.7720596372 -1.7336685462
C 3.2099145437 -1.7690714607 -2.9589993357
C 4.1114498263 -0.7481317654 -3.2515683801
C 4.3438189672 0.2726234480 -2.3329924815
C -4.6217182810 -1.5851785650 0.6339304267
H -3.4030779906 -2.6496170878 -1.5726288070
H -2.0940236440 -1.4649642343 -1.7476930081
H -3.7769885676 -0.9472451402 -1.8796652458
H -2.9442755718 0.2396383482 1.6407864216
H -2.4299695713 -3.3123897507 2.4235709039
H -1.4120989558 -2.0177961334 3.0750679438
H -3.1570914568 -1.7768037336 2.9276372058
H -0.8229812165 -3.3319029870 0.3650660945
H 0.0784089779 -2.0271022861 1.1529687876
H -0.5003923853 -1.8187971934 -0.5023594777
H -0.6064321713 2.7584084268 -0.9555689761
H 1.4989671158 1.7622627184 -1.0596575634
H 4.2562138472 2.0733335647 2.2139476038
H 2.5202076199 3.2443740674 3.5604187967
H 0.2641148516 3.6385845938 2.6094363339
H 2.2622573083 -0.7658623652 0.1553497391
H 1.8477815499 -2.5688026651 -1.4929833166
H 3.0278760155 -2.5596432959 -3.6794026220
H 4.6346761275 -0.7385836819 -4.2025821234
H 5.0387401276 1.0780048635 -2.5464771085
H -4.9161245235 -2.6344338813 0.5152943608
H -4.7558973834 -1.3076401582 1.6800016333
H -5.3050853501 -0.9746508737 0.0342350552
