70
CONF170
C -2.8492181576 -0.2318483280 -0.8448766840
C -4.2490241261 0.4165397789 -0.7322331715
C -5.2393252385 -0.6120021345 -0.2924621967
C -6.5937744561 -0.7802022064 -0.4478575264
N -6.9829357675 -1.9589497920 0.1821163573
C -5.8817529806 -2.5687756660 0.7388888924
C -5.6920808981 -3.7521755714 1.4570622419
C -4.3868620408 -4.0423922367 1.8469409256
C -3.2903461505 -3.2024931292 1.5454459923
C -3.4794144057 -2.0200027780 0.8387127077
C -4.7854786214 -1.7320134601 0.4486328498
C -2.4393811488 -0.9863279530 0.4568403750
C -1.0442876785 -1.5946070476 0.3215747215
C -0.0270333895 -0.5277211889 -0.0855012269
C -0.5122341257 0.1590382380 -1.3671388657
N -1.8171905003 0.7853622254 -1.1304828218
C -2.1375769996 1.7153496567 -2.2349223561
C -2.3291221098 1.0754195935 -3.5839540327
C -1.5491075079 1.3121275566 -4.6369581184
C 1.3320311102 -1.1464551543 -0.3523071020
O 1.5058226552 -1.8784294842 -1.3261816516
N 2.4011435341 -0.7936554234 0.4506702546
C 3.7523224441 -1.1827774896 -0.0112110652
C 4.2296226298 -0.4140825626 -1.2462415950
C 4.1381496974 1.1039608751 -1.1353737296
N 4.8074629810 1.6627420649 0.0506758532
C 4.5532155763 3.1050242839 0.1330790921
C 6.2492694358 1.3999482550 0.0516410126
C 2.2130125245 -0.2709045504 1.7773678977
O 1.2843857408 -0.6611951225 2.4868680954
N 3.1436449422 0.6209876611 2.1508821289
C 3.1271126706 1.2117521919 3.4844397243
C 2.1995971637 2.4216182502 3.5745159026
H -2.8912699486 -0.9914537558 -1.6527754335
H -4.1882034479 1.2425596275 -0.0083298671
H -4.5513527072 0.8483664938 -1.6903119863
H -7.3289688371 -0.1686460552 -0.9527151609
H -7.9252778717 -2.3124296638 0.2040819162
H -6.5126001264 -4.4195192672 1.7006611542
H -4.2010009851 -4.9558910144 2.4040927449
H -2.3020584536 -3.5007968455 1.8800165139
H -2.4065348602 -0.2265281171 1.2549372744
H -0.7368921103 -2.0502908300 1.2668968104
H -1.0649144569 -2.3824551385 -0.4431820649
H 0.0355488088 0.2261117520 0.7018930375
H 0.1981411504 0.9417248717 -1.6615587295
H -0.5474426297 -0.5822379236 -2.1842009706
H -3.0337356845 2.2843395387 -1.9634270631
H -1.3141818288 2.4372389951 -2.2945057816
H -3.1594243686 0.3759313383 -3.6838520811
H -0.7097689859 2.0019085515 -4.5697479219
H -1.7222355063 0.8327112610 -5.5962555158
H 3.7354392406 -2.2528743977 -0.2427997106
H 4.4369420438 -1.0372294291 0.8264270416
H 5.2583073770 -0.7310489813 -1.4518342370
H 3.6348256728 -0.7153660232 -2.1136497259
H 3.0805497932 1.3933598862 -1.0730966164
H 4.5417382214 1.5554326411 -2.0613012363
H 3.4737916811 3.2856953192 0.1759749848
H 4.9632205615 3.6501808454 -0.7356150025
H 5.0099034526 3.5089432827 1.0425544885
H 6.4452099552 0.3254968630 0.1014202703
H 6.7443863385 1.8040390218 -0.8498498156
H 6.6999494047 1.8675028524 0.9323171492
H 3.8111559783 0.9911523561 1.4444315300
H 2.8181582751 0.4441320799 4.2010673823
H 4.1551174939 1.5027163030 3.7260931399
H 2.5120578637 3.2010650817 2.8724093243
H 2.2199061193 2.8399842162 4.5857579179
H 1.1708651085 2.1333146369 3.3393240417
