45
CONF54
C -2.1358131397 -0.9047441300 2.0007264483
C -2.1868273415 -1.0922969873 0.5189309969
C -1.8872023380 -0.1455690536 -0.3779455043
C -1.9814716382 -0.3590430595 -1.8294064040
C -0.8640083767 0.1078771781 -2.8116909518
C -2.2473626781 0.7422079162 -2.8195732556
C -2.4931310063 2.1613965499 -2.3574771425
C -3.0856532072 0.3675213516 -4.0263438345
C 0.4132538269 0.6620828982 -2.3359855803
O 1.4926268502 0.1996627217 -2.6616104139
O 0.2992389788 1.7199035613 -1.4942673425
C 1.5423386109 2.2141924844 -0.9236298171
C 1.9803821921 1.3346817078 0.2108588442
C 1.2193658237 1.2593222572 1.3734556766
C 1.5639117765 0.4195254312 2.4211479152
C 2.6977505606 -0.3831538914 2.3667652269
C 3.4666900402 -0.2939628174 1.2117753660
C 3.1249778460 0.5449084588 0.1604959252
F 3.9355689909 0.5930372687 -0.9073396233
F 4.5827515967 -1.0365515743 1.1047027301
C 3.0689272278 -1.3505747002 3.4662555560
O 2.8214816059 -2.7026882647 3.0878576024
C 1.4279097243 -2.9878590657 2.9477771775
F 0.7769785878 0.3989678949 3.5131987583
F 0.1173001214 2.0230602717 1.4884144166
H -1.4507724705 -1.6249628834 2.4651597327
H -3.1202933560 -1.0777475400 2.4528558044
H -1.8054851671 0.1038148608 2.2645797364
H -2.4991976344 -2.0750855452 0.1622720034
H -1.5733334681 0.8322032620 -0.0233736615
H -2.3706092971 -1.3375019102 -2.1044770315
H -0.6790083430 -0.6011026310 -3.6123341148
H -1.9570603036 2.4238320145 -1.4480267179
H -3.5659620823 2.2913423628 -2.1766130738
H -2.1974085555 2.8664779877 -3.1419404299
H -2.8627005629 1.0328456598 -4.8679749109
H -4.1502294462 0.4654922892 -3.7867511437
H -2.8976870389 -0.6628032904 -4.3415298965
H 2.3123446135 2.2714730330 -1.6928937496
H 1.2940836089 3.2134293613 -0.5631037694
H 2.5207143666 -1.0969145289 4.3824105202
H 4.1412677841 -1.2836230548 3.6655639898
H 0.8840623374 -2.7589933444 3.8754813621
H 0.9813025023 -2.4193920706 2.1194061038
H 1.3459886662 -4.0546887361 2.7308635653
