37
CONF17
C -7.6659425306 2.3754382773 0.8248611676
C -6.6194828567 1.8175738629 -0.1276983041
N -5.8439617694 0.7100033532 0.4670009604
S -4.4670406438 0.9408100612 1.3115382285
O -4.3707335620 -0.0430203168 2.3946190108
O -4.2389400580 2.3738086414 1.5093544705
C -3.1480852297 0.3768727510 0.0411545881
C -1.7268096710 0.2207423777 0.6659945680
C -0.5777731911 0.1828547436 -0.4034067474
C 0.7673109369 -0.4043725549 0.1551768269
C 2.0118458657 -0.0388179443 -0.7318326209
C 3.2472491796 -0.9694872833 -0.4652011759
C 4.5979077529 -0.3675640779 -0.9853240512
C 5.7445799187 -1.4223042732 -1.1323151826
F 5.8489289076 -2.1535879229 -0.0138289498
F 6.9002478910 -0.7776645839 -1.3389833848
F 5.5177440299 -2.2348267257 -2.1693910985
F 5.0188096527 0.5767809378 -0.1178276493
F 4.4025635221 0.1987802482 -2.1983995755
F 3.3606657683 -1.1763797025 0.8665113787
F 3.0356732681 -2.1554913767 -1.0787660397
F 1.6675261742 -0.1463355830 -2.0346243929
F 2.3669031737 1.2389536506 -0.4703111848
F 0.9707345028 0.0819737562 1.3997405880
F 0.6571414857 -1.7502852766 0.2163804947
F -0.9812502687 -0.5814566675 -1.4437540231
F -0.3542369414 1.4428375368 -0.8402483752
F -1.5031690180 1.2626224819 1.4987333843
F -1.6959815383 -0.9286234032 1.3777289847
F -3.5493072303 -0.8058287651 -0.4633680633
F -3.1171716794 1.2933326745 -0.9506615280
H -8.2360204687 3.1637712546 0.3236513473
H -8.3638759947 1.5925384114 1.1366406791
H -7.1937782423 2.7998095237 1.7153627141
H -7.0837361607 1.4161304844 -1.0341640412
H -5.9139458016 2.5923416831 -0.4375382573
H -6.3267656970 -0.1553304996 0.6852017286
