38
CONF9
C -7.5515988814 -1.5200895878 0.7410763017
C -6.9439258207 -1.3494974895 -0.6360035094
O -5.4994213408 -1.4818222399 -0.5908875050
C -4.8278456076 -0.3579960389 -0.2097056854
O -5.3448974287 0.7128456959 0.0267414774
N -3.4897085721 -0.6573829838 -0.1493422055
C -2.4251462572 0.1928417631 0.1819836089
C -1.1500886975 -0.3843617747 0.2283635418
C -0.0564484752 0.3996371576 0.5502850957
C -0.1811023631 1.7537713407 0.8289184428
C -1.4527030925 2.3111192949 0.7712150921
C -2.5771571195 1.5559255124 0.4549876226
O 1.1637473161 -0.2641100977 0.6672149735
C 2.2455157353 0.2355639220 -0.0412835720
O 2.1894612547 1.1372292944 -0.8403809830
N 3.3423538637 -0.4895223890 0.3308506174
C 4.6605878336 -0.3702299319 -0.1413735475
C 5.6138963215 -1.2296626895 0.4187418071
C 6.9370131314 -1.1729294241 0.0056607327
C 7.3302034210 -0.2612228674 -0.9699120762
C 6.3792915498 0.5896484588 -1.5233310278
C 5.0479756506 0.5481431406 -1.1221441763
H -8.6432008718 -1.4847843884 0.6670789893
H -7.2664941431 -2.4831328632 1.1738121863
H -7.2270465802 -0.7171602444 1.4072309404
H -7.2607606347 -2.1436806577 -1.3164858058
H -7.1973622028 -0.3772442255 -1.0677582499
H -3.2545500231 -1.6116087553 -0.3734109319
H -1.0004531209 -1.4392311949 0.0208734964
H 0.6894134224 2.3497956640 1.0706493900
H -1.5767930323 3.3685938106 0.9803301197
H -3.5571158005 2.0082040776 0.4200632492
H 3.1755242900 -1.1968998166 1.0296832233
H 5.3150725496 -1.9439227637 1.1815824188
H 7.6625724671 -1.8459735054 0.4508003540
H 8.3641884177 -0.2156890498 -1.2936494100
H 6.6714605341 1.3052923894 -2.2852291931
H 4.3173665863 1.2140270711 -1.5583057982
