47
CONF94
C 2.3438556299 -1.9536779418 -3.4987252003
C 3.1098372414 -1.2064319148 -2.4793034048
C 2.8353355929 -0.7482851263 -1.2175305011
C 4.0512943084 -0.1339534210 -0.7937265627
N 4.9767795699 -0.1969450276 -1.7229996540
O 4.3845223440 -0.8916446190 -2.7896291877
C 4.3356328925 0.5322631588 0.4855659065
C 5.3312332403 0.0501173741 1.3360008446
C 5.6301102459 0.6199154801 2.5601542013
C 4.9000250800 1.7317037590 2.9639748450
C 3.8948127889 2.2569306229 2.1572234135
C 3.6268213833 1.6529199330 0.9370226888
Cl 2.3707174352 2.3368672296 -0.0778902985
F 6.0205502142 -1.0454844133 0.9528455675
C 1.6241344196 -0.8956449882 -0.3912954851
O 1.6922918621 -1.0805304819 0.8244783544
N 0.4382916820 -0.8209987692 -1.0612271591
C -0.8011182101 -0.8930681434 -0.3531485381
C -1.5460461232 0.4255948525 0.0583519038
N -2.6728922238 -0.0139226588 -0.7769951999
C -2.0756544332 -1.2053164666 -1.1640665340
O -2.4630718261 -2.1162751520 -1.8583229019
C -4.0112973695 0.2112439787 -0.2800254539
C -3.9338734222 -0.0095817010 1.2770487046
S -2.2309913516 0.6311671092 1.7520928916
C -4.0372340827 -1.5052125971 1.5740348000
C -4.9839563696 0.7667327934 2.0642167793
C -4.4781387146 1.6101348077 -0.6510200343
O -3.7455170575 2.5645908741 -0.7859457979
O -5.8118590258 1.6515706214 -0.7943627243
H 1.5554283761 -2.5401872868 -3.0234186172
H 1.8781693241 -1.2603190141 -4.2086513934
H 3.0082472689 -2.6185061747 -4.0552404954
H 6.4130815582 0.1923893984 3.1758238476
H 5.1155515171 2.1980573791 3.9191143262
H 3.3288029502 3.1262231295 2.4694271673
H 0.4315937427 -0.4516659568 -2.0020876151
H -0.7088395952 -1.5744463206 0.4977847210
H -1.0607317429 1.3486228933 -0.2682901485
H -4.6947649861 -0.5260894683 -0.7123675182
H -3.8693690859 -1.6850524936 2.6389259197
H -3.3016630556 -2.0871962167 1.0118524551
H -5.0397096071 -1.8621322790 1.3114896187
H -4.9164266518 1.8440697977 1.8916024885
H -5.9830311800 0.4213741863 1.7799833210
H -4.8545058207 0.5807768075 3.1339970467
H -6.0764292353 2.5693019489 -0.9839422016
