119
CONF721
C 3.1815535129 -1.0968028216 -0.5096100982
C 3.3764322507 -2.2523237987 -1.4969653512
C 4.3904329710 -1.9087925311 -2.5857917215
C 5.7328277414 -1.4762195639 -1.9831457991
C 5.5584818052 -0.3219647600 -0.9743533416
C 6.9223861519 0.1112509394 -0.4236408895
C 7.8630602737 0.5155546716 -1.5463838423
O 9.0899880323 1.0672368015 -1.0483340208
C 8.1299647849 -0.6360929667 -2.5488508036
C 8.9509018581 -1.7428180885 -1.8889829531
C 8.7999374562 0.0317659515 -3.8293184226
C 7.6513557783 0.1987798617 -4.8613414688
C 6.3487797913 -0.1219649558 -4.1200420574
C 6.7645350676 -1.1738517080 -3.0832252039
O 6.9612056272 -2.4391768164 -3.7464608622
C 9.9963314499 -0.6790438685 -4.3632818059
C 10.1360383072 -1.5832580453 -5.3439128576
C 11.5480711312 -1.9793982120 -5.4581610551
O 12.0771026580 -2.7653495605 -6.1978254595
O 12.2619397185 -1.2600297647 -4.5132823545
C 11.3617915863 -0.4104377672 -3.7996706020
C 4.5259467121 -0.6689911899 0.1435475775
C 5.0444978507 -1.7991339979 1.0490731874
C 4.2414230865 0.5386726424 1.0664479205
C 3.5248356057 1.7042748594 0.3879899271
C 2.2093677062 1.2479817213 -0.2270404318
C 2.4461117899 0.0767710529 -1.1770996919
O 1.3568333697 0.8512094521 0.8729419695
C -0.0030029877 0.8692183895 0.5811005847
C -0.7441284708 0.1217366082 1.6722298436
C -2.2474367367 0.1974604424 1.4331124145
O -2.5372059742 -0.5724053402 0.2714057188
C -2.6697311424 1.6666397602 1.2499491762
O -4.0312919707 1.8035782057 0.8068939031
C -5.0097418504 1.2812235957 1.6480446543
C -6.3099544809 2.0257720845 1.4137492374
C -7.4459982519 1.3884243415 2.2067875951
O -7.1955596407 1.6279293563 3.5866116817
C -7.5097210401 -0.1202453093 1.9069763356
O -8.4220126363 -0.8223761802 2.7673400624
C -9.7529700907 -0.4176464911 2.7115260759
C -10.6409970534 -1.5867008680 3.0950376564
C -12.0906522158 -1.1336212444 3.1960425664
O -12.5397746600 -0.8251649412 1.8773834116
C -12.2181882731 0.1003846098 4.0998787578
O -13.5434259679 0.6447753975 3.9929689137
C -11.2424873714 1.1990359762 3.6735974961
C -11.2352684727 2.3835904091 4.6150409817
O -9.9198657230 0.6416436163 3.6730807177
C -6.1446653748 -0.7768964643 2.1224095581
C -6.1185891116 -2.2404772867 1.7377337319
O -5.1898953809 -0.1023032874 1.2908852340
C -1.8121553508 2.3589534568 0.1856190254
C -2.1148548962 3.8371278905 0.0568024224
O -0.4348375322 2.2375293668 0.5569726371
H 2.5345134236 -1.4446111386 0.3073505245
H 3.7111234342 -3.1476635244 -0.9590178976
H 2.4119440210 -2.5098303724 -1.9522241399
H 4.5486390528 -2.7672492589 -3.2446074250
H 3.9955952931 -1.1009485224 -3.2138904411
H 6.1398103887 -2.3410093924 -1.4411475741
H 5.1525477003 0.5368861157 -1.5272368633
H 7.3720768323 -0.7048556870 0.1579887939
H 6.8180942138 0.9695266194 0.2473352377
H 7.4036580898 1.3484450603 -2.0945059867
H 9.3860411902 0.5130487932 -0.3171909586
H 9.8291437271 -1.3386630493 -1.3773169848
H 8.3535271165 -2.2893685673 -1.1547612178
H 9.3032322731 -2.4735853961 -2.6189322112
H 9.1575530762 1.0155247835 -3.5043316427
H 7.7839113617 -0.4981972977 -5.6940749762
H 7.6540125163 1.1998468056 -5.3000514741
H 5.5765537300 -0.5098819422 -4.7879919588
H 5.9459454656 0.7692642974 -3.6265573652
H 7.6972261818 -2.3560383375 -4.3637645983
H 9.3912561737 -1.9984966444 -6.0092102331
H 11.6504665493 0.6387302230 -3.9542824225
H 11.4310034290 -0.6258658299 -2.7270421439
H 5.8601217126 -1.4470101358 1.6891778146
H 5.4058043451 -2.6686436470 0.4952878194
H 4.2394052746 -2.1388853996 1.7091388427
H 5.1685681278 0.8859623120 1.5355963253
H 3.6058587625 0.1796153509 1.8849794389
H 4.1460081190 2.1399724572 -0.4048434717
H 3.3249754647 2.4995565985 1.1136838405
H 1.7310146042 2.0828995217 -0.7561115946
H 1.4906531710 -0.2862855664 -1.5759664327
H 3.0057369570 0.4594334740 -2.0388653190
H -0.2147154084 0.4236247713 -0.4076839269
H -0.4335808446 -0.9274508633 1.6904085052
H -0.4839094664 0.5829784812 2.6313607252
H -2.7746021027 -0.2214923143 2.3052867165
H -3.5032477379 -0.5878232611 0.1996771608
H -2.5406164152 2.1965167194 2.2092678444
H -4.7018878453 1.3353679581 2.7076257758
H -6.5251689745 1.9908500847 0.3400593150
H -6.2021674319 3.0721389801 1.7148196095
H -8.3980912386 1.8553435529 1.9073890632
H -7.9777498429 1.3042394873 4.0580412745
H -7.8110101394 -0.2640034312 0.8551974842
H -10.0147422846 -0.0304861372 1.7109394522
H -10.5542611929 -2.3833489041 2.3496981651
H -10.2929768669 -1.9728435839 4.0594997005
H -12.7040044241 -1.9483095064 3.6214386710
H -13.3463558423 -0.3005603610 1.9806075537
H -11.9886144181 -0.1817891857 5.1393734635
H -14.1406255180 0.0936601101 4.5112270780
H -11.5060183771 1.5241666439 2.6533779050
H -10.9480573763 2.0646328779 5.6221951960
H -12.2290351766 2.8342223533 4.6569494408
H -10.5181347651 3.1337433035 4.2710743691
H -5.8675607655 -0.6504513101 3.1813976778
H -5.1147001514 -2.6477966915 1.8860156121
H -6.3901271857 -2.3590848543 0.6836851180
H -6.8254087454 -2.8044227616 2.3495474725
H -1.9881738626 1.8459999456 -0.7745793329
H -1.9327511688 4.3433404036 1.0103028002
H -3.1577265458 3.9868277542 -0.2301978851
H -1.4677222873 4.2855524041 -0.7016446268
