56
CONF6
C -2.7199430801 -4.3239255621 -0.5722978908
C -3.1997829838 -2.8838593260 -0.3950692867
C -4.5774009313 -2.6878374152 -1.0313105834
C -2.1750528343 -1.9107960590 -1.0255834337
C -0.7841365272 -1.9519319821 -0.4144026722
C 0.3347895524 -1.8819046467 -1.2469445191
C 1.6194845111 -1.8514496106 -0.7196334228
C 1.7926415572 -1.8955337390 0.6574693999
C 0.6977865938 -1.9770716568 1.5140744166
C -0.5814382718 -1.9967071919 0.9664103152
O 3.1277356091 -1.8802795630 1.0724645048
C 3.4654883617 -1.5260570002 2.3437624120
F 3.0640488250 -2.4728607457 3.2611921903
F 2.8586024994 -0.3568782951 2.7251248592
C -2.6624610940 -0.4763532213 -0.9892292947
O -2.8284510102 0.2473021733 -1.9431477882
O -2.8716257536 -0.0665259637 0.2951504638
C -3.2004398200 1.3302709210 0.4441020516
C -3.6797163158 1.4700554409 1.8202493095
N -4.0494409124 1.6247230329 2.9029868894
C -2.0067072050 2.2374184676 0.1983858224
C -2.2221252162 3.5426140534 -0.2385874366
C -1.1355760798 4.3853016941 -0.4561377867
C 0.1632193153 3.9257508769 -0.2576377859
C 0.3541851159 2.6173435343 0.1703495606
C -0.7143537696 1.7666095969 0.4169781043
O 1.6413359819 2.1531405958 0.4061828211
C 2.3451438789 1.6381479323 -0.6673034010
C 1.8081106289 1.5142873249 -1.9470887848
C 2.5956560909 0.9668019510 -2.9586371020
C 3.8978690462 0.5479993429 -2.7025807863
C 4.4188941723 0.6828479921 -1.4152629689
C 3.6496553107 1.2279573043 -0.3948958777
H -2.6393159228 -4.5701740098 -1.6376690289
H -1.7420867138 -4.4849787426 -0.1089261210
H -3.4330962554 -5.0176436259 -0.1166467825
H -3.2778014674 -2.6627995033 0.6757942467
H -5.2953772033 -3.3952397108 -0.6058168862
H -4.5285502858 -2.8611984935 -2.1127302345
H -4.9658196291 -1.6770378430 -0.8642580286
H -2.0894721674 -2.1522604528 -2.0904879097
H 0.2027468653 -1.8367768680 -2.3242257712
H 2.4880083998 -1.7738889896 -1.3648361748
H 0.8175692939 -2.0194793671 2.5884725311
H -1.4281225533 -2.0449279511 1.6426264725
H 4.5504194772 -1.4141756053 2.4001068020
H -4.0189048380 1.5994656081 -0.2350061315
H -3.2335919112 3.8971062067 -0.4124179671
H -1.3008166011 5.4026308177 -0.7949696970
H 1.0223420242 4.5630340701 -0.4396121418
H -0.5253300002 0.7514815406 0.7518951451
H 0.7909556281 1.8266898228 -2.1547851720
H 2.1763689034 0.8653033960 -3.9550394894
H 4.5021230416 0.1209201991 -3.4960518033
H 5.4331634316 0.3600761678 -1.2008037467
H 4.0407253666 1.3330124169 0.6116796511
