15
CONF21
C -1.6899517698 0.9177830567 -0.0668784426
C -0.5690223082 -0.0986863412 -0.1920793271
C 0.8223419719 0.5082916180 0.1388292477
C 2.0405889253 -0.4640201065 0.0955756002
F 3.1550452509 0.2313316010 0.3783926699
F 2.1787273999 -1.0115554738 -1.1187522856
F 1.9099422281 -1.4403788567 1.0025159750
F 0.7782345488 1.0346603819 1.3901982141
F 1.0761535990 1.5085934043 -0.7436248490
F -0.5159188059 -0.6024943106 -1.4624447669
F -0.7814506700 -1.1553300707 0.6496842409
O -2.8864263802 0.2428492416 -0.4198356688
H -1.4706053863 1.7570704500 -0.7404287173
H -1.7067115658 1.2820813323 0.9682281707
H -3.6186152387 0.8532288945 -0.2685975762
