48
CONF26
C -0.4600646670 -1.1020128942 1.5046147898
C -1.1370890982 -0.3293642223 0.3828794778
N -1.0030368260 -1.0333409417 -0.8939201696
C 0.4032216775 -1.3662433658 -1.1821891430
C 1.0351379366 -2.1168968099 -0.0237409280
N 0.9520351908 -1.3271713231 1.2045356408
C 1.6357344080 -1.9898007991 2.3253489212
C 3.1572625666 -1.8499792984 2.2580647401
C 3.6830229904 -0.4788065778 2.6976780400
N 3.0241353612 0.6306912770 2.0211454010
C 3.0989028008 0.8472753817 0.6742403696
O 3.8514819571 0.3548315707 -0.1663101346
N 2.0964417252 1.8083289073 0.4637481611
C 1.7045463203 2.3897696687 -0.7147011394
C 0.6624668945 3.2606563386 -0.6862229041
C 0.0058327048 3.5535816936 0.5493763274
C 0.3945029089 2.9642729276 1.7198848160
C 1.4679214428 2.0423904151 1.6866511430
N 2.0131886690 1.3260241975 2.6492353204
C -1.7639042844 -0.5534307621 -1.9652471197
C -1.7218074885 -1.2242990759 -3.2057966645
C -2.5076215315 -0.7761210548 -4.2516817731
C -3.3599828374 0.3176720453 -4.1485927186
C -3.3996954146 0.9714748519 -2.9213862116
C -2.6182491662 0.5595136355 -1.8465076956
Cl -2.4341701404 -1.6511698024 -5.7870672340
H -0.9985627919 -2.0583656361 1.6671091273
H -0.5411956635 -0.5105855290 2.4238938641
H -2.1992602871 -0.2332006559 0.6284320353
H -0.7059762011 0.6858127475 0.3260455362
H 0.4662474421 -1.9913497929 -2.0739410180
H 0.9756896055 -0.4408780561 -1.3743560023
H 2.0833446075 -2.3065963636 -0.2762256850
H 0.5333831155 -3.0987527548 0.0980991008
H 1.3651942330 -3.0622509669 2.3709560908
H 1.2757674944 -1.5335089399 3.2563146372
H 3.5179485429 -2.0740625015 1.2497321228
H 3.6134444288 -2.5915223114 2.9237051284
H 4.7589515173 -0.4092906733 2.5049689968
H 3.5157294135 -0.3248550764 3.7668489068
H 2.2650600761 2.1074439343 -1.5982490133
H 0.3365803728 3.7303815375 -1.6057620722
H -0.8219785035 4.2543097544 0.5501372367
H -0.0963547840 3.1671986468 2.6645583611
H -1.1067067239 -2.1044829084 -3.3411932819
H -3.9614604592 0.6445504483 -4.9879089987
H -4.0459543913 1.8359366774 -2.8029645991
H -2.6709713430 1.1211882070 -0.9230578284
