50
CONF37
C 2.1016972559 -2.9674651708 1.0371631222
C 2.2018831532 -1.5242578075 0.6045443515
C 1.1494580256 -0.6579713903 0.9109216015
C 1.1746227157 0.6666098916 0.4401174185
C 2.1845188409 1.1254083846 -0.3702121181
C 3.2637986708 0.2851373895 -0.7065269925
C 3.3095114853 -1.0297384413 -0.1469350794
C 4.5622049031 -1.7143117475 -0.3905724179
N 5.4565126937 -1.2521094531 -1.2570854783
C 5.2085553119 -0.0561305600 -1.8437297852
N 4.2135041842 0.7702779274 -1.5573036229
N 6.0908136161 0.3132732696 -2.8252541794
N 4.9165045650 -2.8561365322 0.2570147055
C -0.0183256247 -1.1338427640 1.7732737307
N -1.0607690810 -0.1638522594 2.0331369511
C -1.9384718187 0.2691358847 1.0504732322
C -2.7758991034 1.3621652843 1.3328413280
C -3.6984756317 1.7901395592 0.3806189485
C -3.7958291683 1.1508345398 -0.8656655644
C -2.9541181117 0.0648652869 -1.1342685523
C -2.0219422208 -0.3767411749 -0.1912118193
O -3.1055827825 -0.4970683267 -2.3671472156
C -2.2487054746 -1.5934141388 -2.7057312793
O -4.6784232319 1.6101425765 -1.8208331618
C -5.9656278836 0.9687362472 -1.7447131361
O -4.5560504368 2.8333595620 0.5639423631
C -4.4966427375 3.5245972480 1.8164901857
H 2.5944071725 -3.6372759532 0.3318274492
H 2.5352439419 -3.1318056785 2.0333599635
H 1.0590949149 -3.2804323947 1.1012054947
H 0.3582487125 1.3335617273 0.6958686568
H 6.9887677349 -0.1444052517 -2.8207360241
H 6.0925048361 1.2885771387 -3.0801642094
H 4.4913466033 -3.0846868469 1.1385188943
H 5.8816207528 -3.1313253451 0.1491931499
H -0.4822604378 -2.0205974302 1.3231227150
H 0.3660037320 -1.4665715888 2.7454488436
H -0.8559634699 0.5131324303 2.7524011636
H -2.6992080500 1.8494215648 2.2972973265
H -1.3543118341 -1.1929477862 -0.4261289257
H -1.1947785318 -1.2911007521 -2.6882861983
H -2.5290558787 -1.8828902779 -3.7190385581
H -2.4016085231 -2.4401330200 -2.0259687683
H -6.4339490430 1.1576491059 -0.7710587045
H -6.5795221498 1.4019611037 -2.5375935956
H -5.8682034488 -0.1121905056 -1.9027907704
H -3.5092697050 3.9752972128 1.9718590970
H -5.2516412135 4.3090684064 1.7556362475
H -4.7307234205 2.8520280526 2.6502355336
H 2.1686573459 2.1321570315 -0.7749708264
