21
CONF91
C 1.2713575797 -1.0405626278 -0.3843059369
C 0.0982716317 -0.0750996181 -0.1236272691
C 0.6120417437 1.3584739544 -0.3482552030
O 1.7078775627 1.7152135595 0.5066622930
C -1.0212709112 -0.3647689107 -1.1388484166
O -2.1140515131 0.5610500370 -1.0880518038
C -0.3944513709 -0.2884417710 1.3147859441
O -1.5431857435 0.5169303509 1.6584496116
O 0.9626602871 -2.4228684233 -0.1603361275
H 2.0864281423 -0.8010240432 0.3047733330
H 1.6370206262 -0.8862711957 -1.4103770418
H 0.9850277636 1.4396073571 -1.3765851635
H -0.2112986462 2.0745219086 -0.2389845371
H 1.3506970779 2.0102500335 1.3525112825
H -0.6131745160 -0.3052525992 -2.1558839081
H -1.3901025381 -1.3908712519 -0.9816103641
H -2.3289403629 0.6630016853 -0.1459136678
H -0.7154337963 -1.3269196771 1.4317276778
H 0.4228820490 -0.1050172351 2.0253513568
H -1.2405571586 1.4110506218 1.8621352866
H 0.4382023894 -2.7430018692 -0.9036173251
