32
CONF28
C 3.1324174213 2.1067795038 -2.5352768337
C 2.1731172650 1.5785406271 -1.5068812820
C 1.9833267150 0.2067496906 -1.3277576363
C 1.0953453999 -0.2778349121 -0.3708194393
C 0.3776674112 0.6161559703 0.4162408436
C 0.5532435648 1.9917855701 0.2545462134
C 1.4464973688 2.4620612851 -0.6965664565
N -0.5492797452 0.1001287471 1.3947228379
S -0.2138922385 0.4075037367 3.0414098142
C 0.1379191901 -1.2885936190 3.6505693753
F -0.9484437559 -2.0917626832 3.6088252692
Cl 0.6098285009 -1.0383184473 5.3702208534
Cl 1.4460017187 -2.1275438980 2.7454154651
S -2.2467944599 0.1101155740 0.8971935444
O -2.5366738667 1.3889933671 0.2397949192
O -2.9875970145 -0.2955851938 2.0929646242
N -2.4014904391 -1.0869334079 -0.2382738458
C -2.0965318850 -2.4544229731 0.2082686852
C -2.0697390493 -0.8026762255 -1.6445782543
H 2.6194120873 2.7715100311 -3.2383502180
H 3.5949643691 1.2949890065 -3.1007687054
H 3.9262795898 2.6930434562 -2.0598721239
H 2.5395204862 -0.4961097330 -1.9412747600
H 0.9613395702 -1.3452060269 -0.2347389273
H -0.0105584592 2.6835661624 0.8726133366
H 1.5815056139 3.5332312615 -0.8188769139
H -1.0197240293 -2.6649042678 0.1735211852
H -2.4692574326 -2.6120037656 1.2212817435
H -2.6157975238 -3.1398205007 -0.4673808007
H -2.7296669155 -1.4191978018 -2.2624472810
H -2.2558409446 0.2470387586 -1.8703590563
H -1.0270982114 -1.0512788906 -1.8733663772
