45
CONF386
O -0.7281283291 -0.4028755246 -2.9621242421
C -1.9974195991 -1.0059191730 -2.7085574611
C -2.4275982382 -0.9325872338 -1.2610869935
O -1.4586114258 -1.6573914633 -0.4489795293
C -1.3312577405 -1.0649880516 0.8260722736
C -1.4298484483 -2.1286111809 1.9047853761
O -2.7072927440 -2.7515342280 1.8038274341
O -0.0505815381 -0.4114746914 1.0042445900
C 1.0496821436 -0.8832300547 0.2510420077
O 1.2346488058 -0.1219374999 -0.9353931337
C 1.5001848257 1.2866865700 -0.7108422739
C 1.5351998894 1.9691998030 -2.0680454292
O 0.2383137620 2.2265484978 -2.6003639193
C 2.8117319730 1.4167837166 0.0606643464
O 3.0504640018 2.8059086390 0.2866375102
C 2.6868920824 0.6653550695 1.3778788291
O 3.9515363833 0.7586542425 2.0379557369
C 2.3006108789 -0.7898812086 1.1306719325
O 2.1360589786 -1.5022777283 2.3533844069
C -2.3978081726 0.0475025233 0.8734904960
O -2.1143774646 1.1020436436 1.7680482680
C -2.5081941530 0.4359946069 -0.6041186578
O -3.7284849946 1.0655398264 -0.9600513587
H -0.1098122633 -0.6795751638 -2.2618642667
H -2.7386327623 -0.4809926143 -3.3199106108
H -1.9833470247 -2.0610792469 -3.0170128367
H -3.4079531915 -1.4258218023 -1.1712036634
H -1.2937087566 -1.6359147350 2.8783511624
H -0.6125028919 -2.8510671168 1.7568984713
H -2.7783030781 -3.3966758592 2.5171374665
H 0.8889158605 -1.9121048793 -0.0835602213
H 0.6862998939 1.7246676311 -0.1150486313
H 2.1433055522 1.3617027903 -2.7564025947
H 2.0221688628 2.9405027989 -1.9485610311
H -0.1879995543 1.3706860531 -2.7970141208
H 3.6294982240 0.9721588043 -0.5313765354
H 3.8000524955 2.8669858415 0.8940575578
H 1.9055939405 1.1549511000 1.9831697489
H 3.8654845206 0.3210893250 2.8951829280
H 3.1188716280 -1.2851469790 0.5957772722
H 1.3492727713 -1.1408297328 2.7879835659
H -3.3509641771 -0.3904917036 1.1893889199
H -1.2106997498 1.3986419177 1.5856969615
H -1.6432838592 1.0550310026 -0.8892218349
H -3.7079763008 1.9657735633 -0.6116077095
