41
CONF131
C -3.8326995820 -2.4841654835 1.9842048258
C -3.6432089006 -1.0759696338 2.5502708437
N -3.4090069271 -0.0489604647 1.5357593490
C -4.5662537752 0.6631154939 1.0110807999
C -5.0518998464 0.1137858352 -0.3308887355
O -6.0389187952 1.0303671930 -0.8001593484
C -2.1604938215 0.1523600087 1.0022052874
C -1.9247616294 1.1549137339 0.0290455338
C -0.6577352850 1.3683914299 -0.4698572018
C 0.4368598635 0.6010042885 -0.0450363261
C 0.2122838687 -0.4073633540 0.9109923748
C -1.0468143892 -0.6289807631 1.4165864130
N 1.6622647696 0.9057400525 -0.6239660547
N 2.6422217518 0.2072770413 -0.2271055327
C 3.8677532322 0.5382831265 -0.8323321806
C 4.9720874947 -0.2105367364 -0.4002784050
C 6.2316452280 0.0224069516 -0.9245007382
C 6.3778510272 1.0139094199 -1.8890955334
C 5.2960830243 1.7728284388 -2.3368376117
C 4.0419763246 1.5355325976 -1.8089730136
N 7.7104880524 1.2688899065 -2.4535374550
O 8.6446171134 0.5883228542 -2.0400883192
O 7.8108715691 2.1490911006 -3.3030864706
H -3.9303722314 -3.2073942384 2.8000691794
H -2.9827224226 -2.7792262308 1.3627498566
H -4.7369193912 -2.5431281959 1.3721392669
H -2.8153612266 -1.0600218404 3.2671810842
H -4.5350170640 -0.7817337794 3.1129290463
H -4.3429447951 1.7303356081 0.8947485468
H -5.3768618007 0.5949095703 1.7419971241
H -4.2046489954 0.0369131329 -1.0281345564
H -5.4727291519 -0.8933765188 -0.1923699302
H -6.3813862066 0.7098198000 -1.6405208741
H -2.7344467696 1.7734183411 -0.3354886379
H -0.4836801504 2.1434080822 -1.2094524285
H 1.0473148280 -1.0148088088 1.2399858212
H -1.1767097007 -1.4259086616 2.1372225811
H 4.8130020128 -0.9742157455 0.3532757309
H 7.0960898816 -0.5445760234 -0.6034252015
H 5.4583765527 2.5339531222 -3.0898745968
H 3.1838072527 2.1085478532 -2.1374350156
