44
CONF59
C -4.7260334955 1.7073315370 0.1504998185
N -3.7279143222 0.6506699450 0.3529072869
C -3.1600095181 0.1748195028 -0.9308865324
C -2.1868053622 1.2965553933 -1.3876599172
C -1.7540434640 1.9713236006 -0.0607045332
C -2.5107501964 1.1617922789 1.0270224249
C -1.7217469480 -0.0544175948 1.5258770391
C -1.3589693454 -1.0354439675 0.4141772671
C -2.4487239540 -1.1540050238 -0.6532526424
O -0.1097133583 -0.5393897029 -0.1941856794
C 0.6717858876 -1.4339679776 -0.8108546152
O 0.4199174069 -2.6197752614 -0.9150307584
C 1.9366880182 -0.7725054281 -1.3318801384
C 2.5907288676 -1.6537749309 -2.4049269338
O 3.7658023076 -1.0479566000 -2.9428521342
C 2.8633200004 -0.4823642152 -0.1664704344
C 3.2617636836 0.8254167605 0.1138140217
C 4.1175131849 1.0914525128 1.1811051942
C 4.5794744279 0.0505355712 1.9827718426
C 4.1819376158 -1.2578725643 1.7109206898
C 3.3297212183 -1.5227063972 0.6429200094
H -4.3540819224 2.5786772340 -0.4140059676
H -5.5829025562 1.2938632999 -0.3919062426
H -5.0781351973 2.0612776305 1.1252409632
H -3.9659850249 0.0038828920 -1.6527783696
H -1.3419340452 0.8929280270 -1.9505351307
H -2.7053855227 2.0071879571 -2.0372668868
H -0.6730662190 1.9462462561 0.0940434461
H -2.0657645976 3.0193115702 -0.0361302739
H -2.7932881208 1.7807634043 1.8854174643
H -2.3428511483 -0.5908200059 2.2520343048
H -0.8079705638 0.2593250927 2.0420689767
H -1.1310613345 -2.0194602570 0.8324232757
H -3.1914182499 -1.8752825430 -0.2929561205
H -2.0171669877 -1.5622014662 -1.5729455593
H 1.6449238698 0.1828045650 -1.7846248319
H 1.8574132247 -1.8675305204 -3.1944579091
H 2.9061169290 -2.6046017049 -1.9675609664
H 3.5000199177 -0.2508977291 -3.4189478107
H 2.9006833738 1.6389869680 -0.5093291772
H 4.4227568291 2.1132771386 1.3851083950
H 5.2451572072 0.2565083141 2.8151205776
H 4.5359626030 -2.0744404040 2.3328036027
H 3.0240360930 -2.5455227656 0.4393498285
