47
CONF243
C -7.1961317438 -1.9292909479 2.0951236519
O -6.5146336413 -0.6993062992 1.7121068493
P -4.9605610502 -0.7733771927 1.3356585432
S -3.7223953588 -1.5195889141 2.6271591622
O -4.8580510108 -1.5493397725 -0.0635744990
C -5.7136396342 -1.1459562428 -1.1784089501
O -4.8116141207 0.8093409854 1.0011719709
C -3.5542318539 1.4092608020 0.8944052166
C -2.6720956896 1.0398251582 -0.1159843778
C -1.4520127416 1.6949719129 -0.2194275849
C -1.1146028939 2.6955590230 0.6962555616
C -2.0127023396 3.0540799599 1.7032133936
C -3.2439034358 2.4130079388 1.7994199195
S 0.4178630373 3.6075068159 0.5623235619
C 1.6263200827 2.3165476747 0.2908739318
C 1.5743177340 1.0987955798 0.9756262975
C 2.5615311706 0.1445434455 0.7686933678
C 3.6100261708 0.4282792262 -0.0979195973
C 3.6898118742 1.6407277321 -0.7689549788
C 2.6833129051 2.5833852119 -0.5819187490
O 4.6169420615 -0.5287276149 -0.2398447131
P 4.8356264128 -1.3426971012 -1.6370846716
S 3.2110709278 -1.8285334277 -2.5772767189
O 5.8067682237 -2.5007953469 -1.1221178931
C 5.2935598585 -3.5401808150 -0.2399009661
O 5.8124010110 -0.4576836535 -2.5325824443
C 7.0844803449 0.0219593361 -1.9918876950
H -6.7729412717 -2.3133514482 3.0267822955
H -7.1113708033 -2.6760133509 1.3005459321
H -8.2394185711 -1.6509428418 2.2384599417
H -5.5127524896 -0.1060029354 -1.4489372415
H -5.4478999053 -1.8075840281 -2.0018781390
H -6.7652850927 -1.2749950880 -0.9116458345
H -2.9398544191 0.2620687087 -0.8231965249
H -0.7639900399 1.4239582762 -1.0132321077
H -1.7501009893 3.8253442215 2.4197523351
H -3.9504486607 2.6737709148 2.5797880815
H 0.7618233087 0.8897617835 1.6634123386
H 2.5309988514 -0.8107240185 1.2819803731
H 4.5171362269 1.8446998207 -1.4404995346
H 2.7240862887 3.5253225540 -1.1191869652
H 4.4885588820 -4.0865363599 -0.7381532272
H 6.1366563621 -4.2020248959 -0.0457085520
H 4.9371103608 -3.0964164872 0.6932270691
H 6.9190710221 0.5444005649 -1.0461821113
H 7.7669488459 -0.8187831390 -1.8540629857
H 7.4742146821 0.7117344808 -2.7393667303
