44
CONF24
C -3.6095379142 0.3834989525 4.4303276090
C -3.1270235402 0.0569387743 3.0384036953
C -4.1295472839 -0.7204851251 2.1629197687
O -4.1235701127 -0.0283634083 0.8954050280
C -3.0532459527 0.9094817630 0.9405280001
O -2.9465878273 1.2856379741 2.2945429638
C -3.4859763697 2.1502804287 0.1466338227
N -3.5642638494 1.8685246301 -1.2746715819
C -4.5513588820 1.2542478493 -1.9587512108
N -4.1975855922 1.0912004339 -3.2276277129
C -2.9459512728 1.6310362304 -3.2605782214
N -2.5160353300 2.1124642683 -2.1014939433
C -1.7688921657 0.2699408915 0.4028236655
C -0.4987619504 0.8421904341 0.5273907677
C 0.6424586188 0.2432118889 0.0101092283
C 0.5167740253 -0.9695658304 -0.6615789657
C -0.7288783630 -1.5626537129 -0.8284474246
C -1.8477617242 -0.9359959952 -0.3000337548
O 1.5922068771 -1.5935867434 -1.2527036244
C 2.8451573136 -1.4788856857 -0.6724603056
C 3.0376519741 -1.6912470262 0.6902869262
C 4.3244078180 -1.6423273792 1.2137880704
C 5.3938579189 -1.3918487887 0.3604699385
C 5.2080306964 -1.1902142283 -1.0016341693
C 3.9176428191 -1.2305502244 -1.5204321990
Cl 7.0235259955 -1.3320427852 1.0232503902
Cl -0.2568145312 2.3952695430 1.3240772807
H -2.8691105850 0.9861528404 4.9629828984
H -4.5562287931 0.9304259204 4.3864904082
H -3.7651590716 -0.5430531558 4.9912219457
H -2.1649104356 -0.4735090923 3.0738329295
H -3.8286148336 -1.7654050683 2.0275354379
H -5.1472364633 -0.6755352007 2.5637135128
H -4.4704828686 2.4573231084 0.5083243449
H -2.7710330489 2.9601234335 0.2960386836
H -5.4869179387 0.9626491118 -1.5006467627
H -2.3393321053 1.6786197488 -4.1560803441
H 1.6091181307 0.7199843799 0.1190483014
H -0.8118198920 -2.5010428720 -1.3651213294
H -2.8226580711 -1.3918070780 -0.4269054871
H 2.1926083329 -1.8956065174 1.3389917588
H 4.4901760217 -1.8075494894 2.2721578686
H 6.0535318384 -0.9974497110 -1.6518318305
H 3.7414941926 -1.0732384601 -2.5789112864
