49
CONF94
C -4.5993719306 -0.3608663147 -0.5570733425
C -3.7838841847 -1.1319840724 0.4596484616
C -2.5836578981 -0.4686695076 1.1579197923
C -2.4017634902 -1.6098771103 0.1249205607
C -1.8839854247 -2.9175012985 0.6907315910
C -1.7856129774 -1.3034252302 -1.2238556602
C -2.1292323600 0.8903321759 0.8760561635
O -2.2480442019 1.5485396648 -0.1363656332
O -1.4681589188 1.3881580042 1.9852333976
C -0.8459252978 2.6725498864 1.7738279117
C -0.5510939980 3.1889077540 3.1113406229
N -0.2909661822 3.6240174054 4.1489122621
C 0.4212147450 2.5630566237 0.9464195666
C 1.3092626296 1.5189491753 1.1940096629
C 2.4576829940 1.4118238807 0.4189898582
C 2.7377256780 2.3394083204 -0.5845757937
C 1.8415290470 3.3771498598 -0.8135492091
C 0.6788805670 3.4943271477 -0.0554509937
O 3.3327322523 0.3967587416 0.7468905562
C 4.0075301333 -0.2622992618 -0.2702877470
C 5.3381357946 -0.5907595386 -0.0350943015
C 6.0348377475 -1.3224646652 -0.9933088482
C 5.4091336501 -1.7142605760 -2.1748070681
C 4.0739320177 -1.3776036547 -2.3925897880
C 3.3617588833 -0.6535996683 -1.4409901956
C -4.6729716690 -1.9622558785 1.3672862388
H -5.3161493977 0.2877814889 -0.0418266185
H -5.1699703645 -1.0715186774 -1.1660212174
H -3.9998458723 0.2606161403 -1.2180027439
H -2.4239063881 -0.7698690867 2.1879762190
H -2.2032832191 -3.7494423891 0.0520055074
H -0.7888476872 -2.9062467590 0.7048052172
H -2.2319650850 -3.1119383135 1.7054402879
H -2.0771981133 -0.3357754085 -1.6276809296
H -2.0790069173 -2.0817057976 -1.9376397886
H -0.6927920041 -1.3196293191 -1.1423730956
H -1.5489654956 3.3587213083 1.2867097290
H 1.1144115678 0.7848025737 1.9689305300
H 3.6430280725 2.2469355274 -1.1747806347
H 2.0522250211 4.1003851899 -1.5946315077
H -0.0265057516 4.2962005928 -0.2483650432
H 5.8106308486 -0.2743917468 0.8889397046
H 7.0738037330 -1.5810733547 -0.8145945173
H 5.9568049412 -2.2808051694 -2.9205780228
H 3.5759257025 -1.6873177521 -3.3060998922
H 2.3196180025 -0.3972750325 -1.6016042847
H -4.1321237527 -2.4178111629 2.1976571930
H -5.4615244546 -1.3292227946 1.7877969030
H -5.1540499916 -2.7598309202 0.7893684343
