49
CONF42
C -3.9009797717 -1.8011456151 1.4711204223
C -3.6109014728 -0.3169444017 1.3983841602
C -2.1603636509 0.1953091382 1.5436900831
C -3.2304357565 0.4445516118 2.6318938449
C -3.6533529388 1.8921004860 2.7953175781
C -3.1266509841 -0.2584821664 3.9685997337
C -1.0212296223 -0.6940497711 1.7485054471
O -0.9589949287 -1.7431404329 2.3584229941
O 0.0906496966 -0.1683478174 1.1153193957
C 1.3088520854 -0.9315529809 1.2760207966
C 1.2164353224 -2.1808459404 0.5077119479
N 1.1782436920 -3.1537367318 -0.1139853530
C 2.4557030613 -0.0777459403 0.7915149915
C 3.4002360494 0.3852671174 1.7038390125
C 4.4368647928 1.2020798742 1.2552900115
C 4.5368046405 1.5442392263 -0.0867072537
C 3.5840147881 1.0687094379 -0.9884861291
C 2.5365769679 0.2605484339 -0.5592621110
O 3.7107550484 1.4904226235 -2.2930452478
C 3.1871775911 0.6989122161 -3.3093384695
C 2.3759106604 1.3199192746 -4.2508064917
C 1.8985069243 0.5754696749 -5.3276394789
C 2.2246966180 -0.7729929226 -5.4515411743
C 3.0415681821 -1.3784691479 -4.4968446895
C 3.5331308165 -0.6452864905 -3.4211653882
C -4.4234766154 0.3551012523 0.3077406231
H -4.9592411487 -1.9444043537 1.7180776086
H -3.2987872850 -2.3281416458 2.2079630035
H -3.7207715865 -2.2624116343 0.4939344459
H -1.9227838187 1.0635784291 0.9381577588
H -3.6163276480 2.4558464728 1.8628071420
H -4.6766366104 1.9370559575 3.1859959182
H -2.9959759465 2.3891515995 3.5164959025
H -2.7723951623 -1.2847660078 3.8971683060
H -4.1135568981 -0.2621505258 4.4454948767
H -2.4419044522 0.2912437751 4.6236231224
H 1.4450651746 -1.1976854070 2.3298258219
H 3.3266697995 0.1119738405 2.7513040614
H 5.1783780892 1.5687460099 1.9573630275
H 5.3430324904 2.1730500224 -0.4493121482
H 1.7922667889 -0.0965849793 -1.2636208991
H 2.1286870766 2.3700266760 -4.1350959925
H 1.2648619271 1.0539213253 -6.0677767335
H 1.8474419313 -1.3501084915 -6.2893227149
H 3.3070257715 -2.4266741252 -4.5924458788
H 4.1761231075 -1.1057747563 -2.6778821389
H -4.2776475975 -0.1743460011 -0.6397108248
H -4.1536156050 1.4003325180 0.1534717647
H -5.4896499695 0.3082310876 0.5586043280
