15
CONF16
O 2.2266534825 -1.4318324498 -1.0768653590
P 1.4031959156 -0.1836199993 -0.5461830671
O 2.1580236887 0.0481589957 0.8332785662
O 1.2267967919 0.9837872697 -1.4560303085
C -0.3078644148 -0.7727185976 -0.0775475445
Cl -1.1129664203 -1.4088154881 -1.5550650020
Cl -0.2563337411 -2.0334667742 1.2034425163
P -1.1898797189 0.7288496209 0.6023342089
O -2.6788027971 0.3088994292 0.9584456884
O -1.4776160684 1.6464876095 -0.6631263128
O -0.3352227928 1.2801701157 1.6915340597
H 2.1395771946 -1.5873470745 -2.0321265531
H 1.6457472667 0.6382066140 1.4243539330
H -2.7868891838 -0.0226589690 1.8654556404
H -0.6544189171 1.8058999094 -1.1719002595
