33
CONF30
C -4.5808657501 0.4487680624 -0.3881609477
C -3.1113332806 0.4433251789 0.0339009231
C -2.9614161900 -0.0310806839 1.4791801423
C -2.2878890064 -0.4306458806 -0.9362157766
C -0.8095978167 -0.3987188052 -0.6582213280
C -0.0521330631 0.7327925320 -0.9866338154
C 1.3056621278 0.7941810214 -0.7013761582
C 1.9518200187 -0.2780898043 -0.0758153400
C 1.2029944647 -1.4074633886 0.2544353909
C -0.1590766276 -1.4657016068 -0.0360826217
C 3.4408567653 -0.2116722714 0.2131675372
C 4.2868758177 -0.2203740732 -1.0599424329
C 3.7623311692 0.9978403471 1.0828218773
O 4.6037267555 1.8315415842 0.8326435067
O 3.0442626758 1.1111977789 2.2238462069
H -4.9970642137 -0.5647882224 -0.3375801018
H -4.6982877208 0.8120848928 -1.4147238416
H -5.1749299263 1.0895682507 0.2717801455
H -2.7254606591 1.4703921588 -0.0364437843
H -3.5479232373 0.5981613621 2.1566788700
H -1.9170304925 -0.0021382807 1.8056527031
H -3.3183069240 -1.0637084412 1.5807946249
H -2.6534032829 -1.4634467342 -0.8738774690
H -2.4727166626 -0.0792542989 -1.9591433181
H -0.5360911584 1.5755277128 -1.4739517589
H 1.8711593568 1.6838902651 -0.9684453464
H 1.6885376066 -2.2501006597 0.7397542919
H -0.7262586049 -2.3540516546 0.2292532621
H 3.7017241609 -1.0878482944 0.8236854464
H 4.0636229800 -1.1202799711 -1.6387079171
H 5.3522389446 -0.2119856219 -0.8167439491
H 4.0661918038 0.6546023756 -1.6773616415
H 2.3877793397 0.3974751809 2.2825540016
