47
CONF70
C 4.9261376580 -1.4555097309 -1.3669316766
C 3.7036387283 -0.8087558551 -0.7875265921
C 2.5806716404 -1.5985989758 -0.4031233704
C 2.6136760030 -3.0834772074 -0.5884933475
C 1.4507020159 -1.0024038776 0.1388003790
C 1.3858109562 0.3846064272 0.3185563145
N 0.2852324506 1.0218774043 0.8599698363
C -0.8691173791 0.2380729068 1.3340615444
C -1.8650391613 -0.0624386151 0.2144929486
O -2.4240346584 1.1277754320 -0.3371048259
C -2.9587941261 -0.9948518091 0.7580608928
O -2.3839718343 -2.2419945282 1.1735240678
C -4.1042547731 -1.2217455025 -0.2443497096
O -5.0480649992 -2.1378329249 0.3201992594
C -3.6436952905 -1.6712360658 -1.6224983964
O -2.8243942798 -2.8489280654 -1.4814435745
C 0.2391435045 2.3911201852 0.9552787897
N -0.8673130660 2.9619548988 1.3950208391
C -0.9076383144 4.3216794353 1.5294620553
O -1.9027136910 4.9218131064 1.9272794219
N 0.2407258310 5.0669764678 1.1969088807
C 1.4281328829 4.5780849912 0.7088674282
O 2.3765197967 5.2988756454 0.4321006785
C 1.4308203263 3.0998361318 0.5584465448
N 2.4992321340 2.5290996494 0.0713815634
C 2.4987458247 1.1811512010 -0.0718816998
C 3.6386646020 0.5556224371 -0.6160134737
H 4.6842639170 -2.0080908976 -2.2815622474
H 5.3600259457 -2.1764465955 -0.6651673171
H 5.6836287624 -0.7068455995 -1.6056752978
H 2.7645196350 -3.3396997472 -1.6434603189
H 1.6871026564 -3.5467984741 -0.2456165449
H 3.4517251823 -3.5243761636 -0.0368116198
H 0.6173263652 -1.6389204846 0.4077383943
H -0.5022943157 -0.6894453431 1.7728707535
H -1.3587686136 0.8162131452 2.1206422264
H -1.3452465017 -0.5772965972 -0.6061415552
H -2.4001540915 1.8201122086 0.3436484452
H -3.3932041069 -0.5496440225 1.6632466813
H -2.1322223936 -2.7088229739 0.3578461823
H -4.6349387650 -0.2735365632 -0.3780354121
H -4.5367300099 -2.8732535889 0.6874820568
H -3.0791420687 -0.8614294241 -2.1041153567
H -4.5287630045 -1.8917385778 -2.2337446504
H -2.4771477815 -3.0860093054 -2.3491493427
H 0.1712042903 6.0706953030 1.3202518531
H 4.4699927255 1.1945609469 -0.8972910038
