41
CONF17
C -5.0940020699 -1.2825026425 2.3727428928
C -4.0225616872 -0.8994696876 1.4039489194
C -3.9971968769 -1.3894660989 0.0968668315
C -2.9662574978 -0.9791864043 -0.7392884678
N -2.0201749174 -0.1342005926 -0.2919962104
C -2.1305135713 0.2835254291 0.9715544478
N -3.0818794618 -0.0528530938 1.8480756842
N -1.1789858772 1.1696548922 1.4697309786
C -0.0454867783 1.7168138670 0.8862856518
O 0.6666303486 2.4969516728 1.5020066914
N 0.2150220727 1.2897456504 -0.4014347291
S 1.4783430470 1.9210878100 -1.3329894142
O 1.3685342327 3.3809277510 -1.4193230313
O 1.4397445542 1.1328186541 -2.5711402737
C 2.9505060631 1.5441886892 -0.3624236253
C 3.9338816265 2.5284880901 -0.3457227820
C 5.0930420962 2.3254746142 0.3949954512
C 5.2449952994 1.1630746201 1.1436530834
C 4.2456895356 0.1966932304 1.1431231285
C 3.0944441005 0.3614808655 0.3710140964
C 2.0824538270 -0.7399858043 0.4400465077
O 1.5748681167 -1.1096554606 1.4788702036
O 1.8736682007 -1.2991419729 -0.7549119972
C 0.9222226268 -2.3971161625 -0.7740104871
C -2.8459176875 -1.4300473459 -2.1573861930
H -5.6562408422 -0.3917751399 2.6726959688
H -5.7822982514 -2.0098358753 1.9399434851
H -4.6450717513 -1.7005949487 3.2790904461
H -4.7614819921 -2.0708145709 -0.2571416515
H -1.3219652279 1.4586238186 2.4286794974
H -0.4669026193 0.6417591375 -0.8398614754
H 3.7849664877 3.4514476628 -0.8937692164
H 5.8640568047 3.0881800847 0.4008605056
H 6.1388785088 1.0095505994 1.7386665750
H 4.3529489322 -0.7052490657 1.7366110564
H 1.2974488021 -3.2224627035 -0.1649068347
H 0.8451206110 -2.6892650877 -1.8199965881
H -0.0427593657 -2.0566486617 -0.3912858761
H -3.6321265557 -2.1401546318 -2.4168720644
H -1.8683852982 -1.8947623324 -2.3211009357
H -2.9072574698 -0.5652993581 -2.8267417611
