68
CONF90
C 2.7291879412 -1.6178992855 -3.2139512375
C 2.3325940018 -1.3003570882 -1.7740745360
C 1.5250144365 -2.4122620228 -1.0500051042
C 2.3463322583 -3.7093320111 -0.9396823094
C 1.3174459574 -1.8977708489 0.3752567385
O 0.0264538330 -1.6919698614 0.6827497646
C -0.2830552378 -1.1819065298 2.0215596886
C -0.4598832883 -2.3835399763 2.9341797684
C -0.7933101883 -1.9514172349 4.3608274552
C -1.8826937466 -0.9231056942 4.3351138063
C -2.2416432003 -0.2161857720 3.2475062470
C -3.3247483751 0.7540656194 3.3089154817
C -3.5762023056 1.6277720110 2.3220808479
C -2.7245461197 1.7458691054 1.0917448223
C -1.3512185304 1.0726285078 1.3164607962
C -1.5576184562 -0.3511005315 1.8974980398
C -0.4602438416 1.1150754342 0.0721486484
C -0.2394610831 2.5238102539 -0.4817722641
C 0.7942088252 2.5454446552 -1.5904944513
C 1.1039690815 3.9337968027 -2.1250645592
C 1.9537971621 3.8845338686 -3.4061927957
C 2.2614244734 2.4312598578 -3.8053779283
C 1.0016172681 1.6134660129 -3.8007877284
O 0.2519525882 1.7220273401 -2.6826644040
O 0.6125382017 0.9077192203 -4.7088879013
O 1.1917521622 4.5310579615 -4.4379481052
C -3.4873842317 1.2326866327 -0.1431598356
C -1.1797026333 -3.1543710337 5.2279356616
O 2.2349799280 -1.6769183675 1.1455726267
C 0.2046262913 -2.6906418004 -1.7729728819
H 3.3677888539 -2.5041969498 -3.2733308242
H 1.8571743852 -1.7772216676 -3.8539150508
H 3.2910530675 -0.7769046235 -3.6331504642
H 3.2326817446 -1.0962364778 -1.1835457593
H 1.7277413470 -0.3840712638 -1.7619510539
H 3.3208584907 -3.5179819311 -0.4826780971
H 1.8142286994 -4.4487590684 -0.3317899544
H 2.5001896686 -4.1398318395 -1.9325618827
H 0.5544991506 -0.5617626838 2.3614821780
H 0.4516875974 -2.9907271963 2.9200099248
H -1.2817478649 -2.9986575163 2.5429058099
H 0.1058320131 -1.4949288835 4.8069645249
H -2.4169885261 -0.7445157558 5.2686235078
H -3.9450248873 0.7473135452 4.2033444193
H -4.4259121385 2.3034050374 2.4026002842
H -2.5458417722 2.8186551045 0.9321643450
H -0.8436499377 1.6553585189 2.1016240092
H -2.2365732083 -0.9024124298 1.2291031379
H -0.8701211115 0.4673494912 -0.7097374924
H 0.5249151548 0.7085094100 0.3270981866
H -1.1675536223 2.9623545937 -0.8662938653
H 0.1221359355 3.1852521442 0.3164467276
H 1.7125416883 2.0529600460 -1.2419139233
H 1.6105382016 4.5038339004 -1.3410236824
H 0.1630359537 4.4455328768 -2.3540734984
H 2.9044043318 4.4133165125 -3.2630788741
H 2.7203348870 2.3799358746 -4.7947254533
H 2.9662435127 2.0010668599 -3.0813616218
H 1.7394557545 4.5670771882 -5.2331715320
H -2.9451098386 1.4435370286 -1.0697708850
H -4.4642616005 1.7224850843 -0.2070001488
H -3.6606690826 0.1536683527 -0.0836029363
H -0.3721189482 -3.8932952751 5.2440112852
H -2.0801774107 -3.6362714373 4.8313175077
H -1.3829345863 -2.8445981258 6.2579521320
H 0.4088849107 -3.1147455117 -2.7597355352
H -0.4027165050 -3.4109042352 -1.2179970038
H -0.3810072630 -1.7760225672 -1.9071919029
