29
CONF33
C 2.5273414739 -0.7933968438 0.1841103370
N 1.7409366745 0.3575610061 0.6544691880
C 2.3622348532 1.0853685558 1.7753250054
S 1.1710427394 1.3335782076 -0.5896033642
O 0.6289527747 2.5506574881 0.0198501707
O 2.0906552496 1.4183959563 -1.7266000740
N -0.1446596401 0.3027777545 -1.1231942229
C -1.2197232207 0.1341093596 -0.1748985926
C -1.2180051777 -0.9959424903 0.6384382941
C -2.2470706310 -1.1786783109 1.5563158229
C -3.2699101099 -0.2389500467 1.6569093696
C -3.2632879054 0.8899379376 0.8405551154
C -2.2348423150 1.0834031131 -0.0746191603
S -0.5503951702 0.3936155473 -2.7803377625
C 0.1732337389 -1.1765131449 -3.3965294171
F 1.5199260989 -1.1958301267 -3.3185584042
Cl -0.4249595902 -2.6341045414 -2.5223426596
Cl -0.3161405218 -1.2237386037 -5.1257262486
H 3.5217759778 -0.4986293642 -0.1765788382
H 2.6359209170 -1.4811459417 1.0277354054
H 1.9938697763 -1.3105361720 -0.6167702440
H 1.7054704550 1.8897540223 2.1064661788
H 3.3476972817 1.4954656103 1.5133987419
H 2.4814691665 0.3683435637 2.5923770152
H -0.4170408812 -1.7200444450 0.5445301381
H -2.2516959287 -2.0598857131 2.1895836980
H -4.0734257968 -0.3861581618 2.3712575390
H -4.0571670925 1.6253146194 0.9195247755
H -2.2122033974 1.9652711700 -0.7067876970
