66
CONF43
C -0.6309395836 -3.2703733120 1.7838289741
C -1.7728571741 -2.4069012083 2.2664277253
O -1.5189319149 -1.0525152901 1.8041426212
C -2.4192137698 -0.1103638145 2.1930284091
O -3.3799549446 -0.3878577771 2.9021766619
C -2.0752481500 1.2018111530 1.6555784872
C -2.8083614329 2.3022242857 1.9919022194
N -2.5202611385 3.5047552962 1.3873899114
C -1.6778707304 3.6551243139 0.3084736539
C -0.9071612052 2.5990412463 -0.0790734832
C -0.8569067919 1.3199427517 0.7505198915
C 0.4385164368 1.2686075413 1.5659396471
C 0.6081870458 2.2286285749 2.5672587545
C 1.7607689681 2.2841974589 3.3398754604
C 2.7812854195 1.3581614952 3.1230050561
C 2.6348835619 0.4000018133 2.1337749966
C 1.4775305597 0.3371277590 1.3344339242
C 1.3634550625 -0.6818448607 0.2980979378
C 2.3861385249 -1.3339192726 -0.2843792578
C 2.2170306362 -2.3501455329 -1.3312212899
O 3.1689637335 -2.9262113624 -1.8428138169
O 0.9275051341 -2.5550967862 -1.6547535158
C 0.5212164227 -3.5353259666 -2.6932601915
C 1.0858657330 -3.1243051112 -4.0479319845
C 0.9444023595 -4.9390559042 -2.2769573056
C -0.9972915564 -3.4079655885 -2.6844401883
C -0.0581165265 2.6943362289 -1.2626847866
O 0.1119010539 3.6801796924 -1.9701203686
O 0.5510475526 1.5046268650 -1.5134911371
C 1.5125527323 1.4641528290 -2.6000032172
C 2.8624402341 1.9782150633 -2.1422279539
C -1.7364389618 5.0055208011 -0.3374016609
C -3.9445680638 2.3607419514 2.9654384606
H 0.3209124802 -2.9301329128 2.2023727459
H -0.5586708833 -3.2546260924 0.6925236771
H -0.8010842311 -4.3024638663 2.1045786781
H -1.8420031894 -2.3984455363 3.3588845198
H -2.7350533802 -2.7395755009 1.8625423636
H -3.0797080660 4.3018550072 1.6529329931
H -0.8714028921 0.4793404906 0.0605353003
H -0.1831047100 2.9513811281 2.7442213683
H 1.8609010697 3.0406299514 4.1120873120
H 3.6804880008 1.3787672300 3.7305229122
H 3.4191959598 -0.3354795622 1.9874536211
H 0.3640228296 -0.9321173835 -0.0344851195
H 3.4232776739 -1.1300312368 -0.0370608442
H 0.8206677236 -2.0855306758 -4.2686776809
H 2.1703299327 -3.2342321187 -4.0828555280
H 0.6434384522 -3.7622257772 -4.8193127391
H 2.0282265901 -5.0574178852 -2.3042991242
H 0.4944556514 -5.6597324532 -2.9667579574
H 0.5817262735 -5.1581426955 -1.2676066363
H -1.3986870035 -3.6718127665 -1.7013834068
H -1.2985522722 -2.3845617530 -2.9273096886
H -1.4240624857 -4.0850963059 -3.4293340950
H 1.1242845783 2.0355326538 -3.4475941047
H 1.5635597372 0.4059108563 -2.8694909691
H 3.5883959525 1.8681354473 -2.9540442853
H 2.8075067665 3.0348942386 -1.8676327155
H 3.2155318164 1.4035041692 -1.2808739789
H -2.0653503935 4.9215701443 -1.3759840270
H -0.7476036766 5.4682693794 -0.3564231089
H -2.4283526613 5.6590654997 0.1996108178
H -4.1976037110 3.3992440925 3.1937841489
H -4.8301576656 1.8705856106 2.5498995968
H -3.6950947740 1.8374252006 3.8886442778
