51
CONF103
C 4.2574811747 1.5933205686 4.5073876717
C 3.7195538845 1.0665196532 3.2052859426
C 4.3494534574 0.0220125869 2.5267685289
C 3.8472042614 -0.4549773337 1.3167701450
C 2.7030003890 0.1021181097 0.7515136941
C 2.0673922230 1.1480441772 1.4264684608
C 2.5669852644 1.6203464927 2.6337256554
C 2.1757386591 -0.3993661311 -0.5812880525
C 2.4205284748 0.6104671320 -1.7020548156
N 0.7446221187 -0.6993494328 -0.5167634406
C 0.2652927627 -1.8217349266 0.0504993684
O 0.9844887399 -2.7161702963 0.5046248919
C -1.2639953205 -1.9675914444 0.1254350037
C -1.7028897243 -2.0340239057 1.6055287647
C -1.3586456475 -0.7576309867 2.3777117208
C -3.1856148522 -2.3854296718 1.7262274131
N -1.9927969748 -0.9425930762 -0.6003390364
C -2.2157966332 -1.0342361991 -1.9382102031
O -1.7765644964 -1.9229343988 -2.6549235054
O -2.9890774689 -0.0033221626 -2.3604121816
C -3.1784659542 0.1218579902 -3.8098606385
C -1.9584856833 0.7925538477 -4.4150542573
C -4.4506231759 0.9247401843 -3.9880958796
H 3.4735294674 1.6314946611 5.2706659401
H 5.0728128293 0.9686266108 4.8801826725
H 4.6401005921 2.6132801167 4.3867335219
H 5.2398903080 -0.4322300303 2.9535047180
H 4.3479177784 -1.2771771494 0.8114897882
H 2.0551719999 2.4315620505 3.1458076071
H 2.6904978568 -1.3369638373 -0.8177509813
H 1.8947674279 1.5493615757 -1.4964583094
H 3.4889123970 0.8284762744 -1.7750687244
H 2.0740025023 0.2130060969 -2.6610265083
H 1.1677684175 1.5933369347 1.0087441043
H -1.4839840173 -2.9367722460 -0.3386924820
H -1.1160666920 -2.8557233755 2.0307392849
H -1.6163540202 -0.8823596958 3.4337805215
H -0.2902799207 -0.5246652693 2.3165726795
H -1.9186429135 0.1104482488 2.0097307170
H -3.4492723141 -2.5370443882 2.7774744849
H -3.8218206700 -1.5834829976 1.3364212548
H -3.4204745405 -3.3033619653 1.1774986244
H -2.4206471766 -0.1787896674 -0.0993784948
H -3.3006608705 -0.8871348805 -4.2151757420
H -2.0893446712 0.8863611249 -5.4974522313
H -1.8277914686 1.7945128344 -3.9932393310
H -1.0557375918 0.2049190295 -4.2278070206
H -4.3442742924 1.9193465245 -3.5434138590
H -5.3005646951 0.4172809320 -3.5239195362
H -4.6574207853 1.0438938241 -5.0554226291
H 0.0871732238 0.0073034836 -0.8148078176
