41
CONF20
C 1.2333206408 -1.7171645497 -1.4537062801
C 0.2752047273 -1.0533841174 -0.5269757325
C -1.0903748409 -1.1227915921 -0.5593582875
C -1.6032536473 -0.4813151556 0.6204620783
C -0.4917629072 -0.0554893919 1.3804839698
N 0.6655751652 -0.3738707805 0.6441087976
C 1.9562477321 0.0159395634 1.0373403436
O 2.2548947565 0.1090425534 2.2156417640
C 2.9036674592 0.4134205951 -0.0367195216
C 2.4736784462 1.0935687973 -1.1794529921
C 3.3944035434 1.5613636162 -2.1075515011
C 4.7477592254 1.3274199362 -1.8885553644
C 5.1993494070 0.6593591084 -0.7531325807
C 4.2707796221 0.2200607192 0.1778792997
Cl 5.9134408326 1.8970358097 -3.0625672763
C -0.6455718289 0.6036071398 2.5888526665
C -1.9417242821 0.8362959463 3.0466195647
C -3.0548026887 0.4163572356 2.3010865361
C -2.8940796689 -0.2416645023 1.0828027265
O -4.3517946117 0.6099042929 2.6929372932
C -4.5769580793 1.2824382671 3.9259390784
C -1.9060789470 -1.7487863660 -1.6346072373
C -1.8288878736 -1.0155481370 -2.9603609447
O -0.9959341916 -0.2044032401 -3.2813036382
O -2.8244928643 -1.4216862196 -3.7916647466
H 2.1317075589 -2.0565546855 -0.9315851291
H 1.5462531701 -1.0670441281 -2.2755847878
H 0.7468159966 -2.5901618112 -1.8982243811
H 1.4146902370 1.2701340701 -1.3419119012
H 3.0684374437 2.1004596364 -2.9891468436
H 6.2602104703 0.4977076102 -0.6027875154
H 4.5955735673 -0.2770222417 1.0856446326
H 0.2091511195 0.9122526834 3.1753808794
H -2.0702559443 1.3387385722 3.9964189910
H -3.7755853534 -0.5426545357 0.5270148995
H -5.6604968811 1.3357371625 4.0418418635
H -4.1634228690 2.2995775738 3.9101683938
H -4.1490465416 0.7264880672 4.7707461450
H -2.9562646521 -1.8319881580 -1.3411249966
H -1.5815028142 -2.7786350681 -1.8460619105
H -2.6988699252 -0.9467437891 -4.6283458467
