44
CONF5
C -1.1964335048 -2.1837089180 3.0234589472
C -1.2387648585 -2.6564113881 1.5789451401
N -1.7562165690 -1.5989983504 0.6623557936
C -3.0767773141 -1.6145317873 0.4247750576
C -3.7301483412 -0.7265735411 -0.3960860364
C -2.9877019274 0.3001472350 -1.0637397297
O -3.5326442019 1.1351136164 -1.8421355963
C -1.5638924853 0.3362555311 -0.7874097046
C -0.7852005967 1.3268701644 -1.4050203462
C 0.5569485740 1.3765616088 -1.1767220489
C 1.2303099143 0.4916851745 -0.2996199186
C 0.4181190017 -0.4594921494 0.3333559676
C -0.9582787370 -0.6078856243 0.0825331181
F 1.0218834506 -1.2220858225 1.2724410718
N 2.5942742115 0.5689464828 -0.1372505938
C 3.2134399195 1.8248424246 0.3144953458
C 4.5929800875 1.9658832027 -0.3071920248
N 5.4001646435 0.7908682228 0.0459958256
C 4.7915056959 -0.4393910959 -0.4831949199
C 3.4101043314 -0.6125302450 0.1519667484
C 5.6750595376 -1.6369366627 -0.1664981280
F 1.3024627453 2.2831335054 -1.8452294895
C -5.1927987960 -0.8711704545 -0.5743766407
O -5.8617529591 -1.7306049621 -0.0194748149
O -5.7498540901 0.0198570678 -1.3996976850
H -0.7959468738 -2.9866247948 3.6488759791
H -0.5611793482 -1.3034881262 3.1436376220
H -2.2039110617 -1.9421645257 3.3753953578
H -1.9256279119 -3.4987743731 1.4756852471
H -0.2676937578 -2.9876650434 1.2174222036
H -3.6381114912 -2.4002968542 0.9189640780
H -1.2540205154 2.0192544562 -2.0940010425
H 3.3045534753 1.8036767156 1.4132288363
H 2.5828630750 2.6719557764 0.0423724956
H 5.0748514564 2.8668075667 0.0880931626
H 4.4776211894 2.0868268688 -1.4000654992
H 6.3266228261 0.8926571870 -0.3578793984
H 4.6456635606 -0.3717062905 -1.5788375239
H 3.5337947129 -0.7658108685 1.2359739241
H 2.9287960480 -1.4950524721 -0.2772577346
H 5.7922877565 -1.7525390484 0.9162124423
H 6.6680012582 -1.5079460187 -0.6092622429
H 5.2384979800 -2.5548251517 -0.5719269242
H -4.9958623910 0.6231589014 -1.7311170720
