46
CONF27
C 3.1188868973 0.7147934211 -4.6472917015
C 2.5150109441 0.9701249897 -3.2704522397
C 3.2426568752 0.2020781362 -2.1042730962
N 2.2476970826 0.0189511998 -1.0728382879
C 0.8651190063 -0.2512905249 -1.4913612003
S 0.7604079891 0.2953325372 -3.2462022291
C 0.3864565101 0.6821412212 -0.3246813381
C 1.8931046118 0.8793058326 -0.0429946080
O 2.5559847967 1.5225999093 0.7371780879
N -0.4232479730 0.1425546281 0.7206648133
C -1.7230639042 0.4998679991 0.9036931348
O -2.2869090646 1.3618529464 0.2322146812
C -2.4194227118 -0.2449979295 2.0051669477
C -2.9615158728 -1.5118626171 1.7590426942
C -3.6566115127 -2.1900182609 2.7648630314
C -3.7952414631 -1.5786633938 4.0070940296
C -3.2670725769 -0.3197264506 4.2774839184
C -2.5758373435 0.3489707111 3.2628816114
O -2.0046162437 1.5764676803 3.3955292968
C -2.1191814798 2.2306714273 4.6686069038
O -2.7620925726 -1.9896557468 0.5001045609
C -3.2780942741 -3.2939283497 0.1926735205
C 3.7922310940 -1.1458919451 -2.5442112918
O 5.0599105055 -1.0359004089 -2.9707657355
O 3.1643586131 -2.1810562022 -2.5262226393
C 2.5089366796 2.4663409957 -2.9573778151
H 4.1508319454 1.0794423853 -4.6662762626
H 3.1112913973 -0.3459844580 -4.9111817532
H 2.5530269378 1.2624951141 -5.4059011726
H 0.5512846360 -1.2943350076 -1.4047222154
H -0.0501756346 -0.6066379842 1.2871624636
H -4.0830575243 -3.1694818474 2.5923839124
H -4.3333681557 -2.1012173503 4.7919113633
H -3.3932921381 0.1202863168 5.2579512121
H -1.6419356836 1.6377602655 5.4566517894
H -3.1697548580 2.4112453697 4.9216977590
H -1.5986808447 3.1817171070 4.5562443064
H -4.3684463496 -3.3171675197 0.2968542535
H -2.8251765130 -4.0549064778 0.8377890841
H -3.0030525418 -3.4793383763 -0.8456328574
H 1.9112634674 2.9985174377 -3.7018004199
H 3.5343893271 2.8519715800 -2.9899143360
H 2.0879846526 2.6793485443 -1.9709662493
H -0.0643312548 1.6048181202 -0.7017408014
H 4.0605241056 0.8216300980 -1.7234401053
H 5.3592485220 -1.9073197592 -3.2857280885
