26
CONF24
C -3.0908740058 -0.4424952720 0.2567256512
C -1.6943136324 -1.0324771505 0.1655250032
C -0.5967001797 0.0314146708 0.3728616962
C 0.7750031182 -0.4445368157 -0.1091101331
C 1.8727344299 0.6190819429 0.0988415142
C 3.2692530243 0.0291383159 0.0066758517
O 3.4454794151 -0.7685858465 -1.1717700362
O 1.7874201648 1.6247126228 -0.9200891791
O 1.0682150895 -1.6405005712 0.6299516484
O -0.8901712255 1.2270069656 -0.3667677022
O -1.6092809539 -2.0370784608 1.1855159544
O -3.2674836989 0.3562077433 1.4344928257
H -3.2794517481 0.2135772996 -0.5963887288
H -3.8180553507 -1.2662791538 0.2262362662
H -1.5798026895 -1.4833079950 -0.8354007674
H -0.5344473399 0.2540705901 1.4483253894
H 0.7127006320 -0.6666462030 -1.1846918833
H 1.7586254699 1.0688956445 1.1002847632
H 3.4581619384 -0.6275879187 0.8592267105
H 3.9964395328 0.8529083940 0.0375632313
H 0.8553336523 1.8944800724 -0.9520046866
H 1.7346011225 -2.1324599203 0.1321473178
H -1.5563908569 1.7191875253 0.1310547244
H -0.6774291959 -2.3076156847 1.2171812153
H 3.2438084395 -0.2021861538 -1.9285791941
H -3.0655358201 -0.2094576871 2.1917808904
