41
CONF34
C -0.1628961820 -0.3837690509 -3.1273901040
C 0.2082969824 -1.3755737441 -2.0576031668
C 0.6910715638 -2.6299202122 -2.4501166389
C 1.0619837245 -3.5814374513 -1.5118871432
C 0.9737593117 -3.2919875358 -0.1527488080
C 0.5047193099 -2.0547287084 0.2847336734
C 0.1122560685 -1.1085704489 -0.6823527081
N -0.4061597100 0.1540285661 -0.2304439476
C -1.8278732139 0.2207336925 0.1604216491
C -2.7612592560 0.4782735628 -1.0147154039
C -2.0574038207 1.2306544446 1.2876730284
O -2.9926329307 2.0024641273 1.3264772028
O -1.1746491651 1.0697484707 2.2833428349
C -1.3145557838 1.9870781469 3.3953549785
C 0.3025052035 1.3105965544 -0.3307398972
O -0.2071198450 2.4097692786 -0.1064453784
C 1.7837178412 1.1696182215 -0.7068778549
O 2.5208881368 2.3241799368 -0.3736305077
C 2.7533147413 2.4253608093 1.0351793981
C 0.4593996396 -1.7328352317 1.7501945879
H -0.4901688106 0.5755387870 -2.7270204614
H 0.6940020594 -0.2063383760 -3.7858432092
H -0.9706809491 -0.7824694196 -3.7499902095
H 0.7718847041 -2.8505978178 -3.5109387290
H 1.4315607124 -4.5491425853 -1.8371328529
H 1.2842691753 -4.0290363543 0.5820408188
H -2.0662900388 -0.7598282516 0.5941183451
H -2.5488187589 1.4450517692 -1.4777448550
H -2.6454113745 -0.3123240349 -1.7595413435
H -3.7968292792 0.4763084974 -0.6681121952
H -2.2881551942 1.8575828828 3.8740419161
H -1.2061796609 3.0167393165 3.0450294774
H -0.5106165388 1.7297909705 4.0839167592
H 2.2081152719 0.2724309677 -0.2305659192
H 1.8600508868 1.0398668747 -1.7929410140
H 1.8106338651 2.5094782646 1.5916386557
H 3.3466098430 3.3279786210 1.1943595854
H 3.3119219555 1.5508605468 1.3980091754
H 0.9425787532 -2.5250569021 2.3258502834
H -0.5685425812 -1.6267416501 2.1122447280
H 0.9627035345 -0.7837750264 1.9601553400
