25
CONF3
C 3.9185511211 0.6124046925 -0.1120689422
C 3.1251242248 -0.4351534592 0.6653676324
N 1.7075717782 -0.1102719791 0.7776768559
C 0.8074631921 -0.3105279400 -0.2089321139
N -0.4347964327 0.1651491447 -0.0036112464
C -1.2854520360 -0.0765866456 -1.0058579567
N -0.9895249360 -0.7491680111 -2.1549128485
C 0.2608562138 -1.1486669700 -2.1959216160
N 1.2236296914 -0.9853866488 -1.3066067182
Cl 0.7277116579 -2.0293512335 -3.6501331722
N -2.5517606822 0.3840935209 -0.9131880749
C -3.1068791080 0.9996333036 0.2844112200
C -3.5204293718 -0.0189245670 1.3448743016
H 3.5397385594 0.6894236597 -1.1344547348
H 3.8465651075 1.5953061721 0.3639455920
H 4.9748911319 0.3295909595 -0.1570658005
H 3.2107668744 -1.4096772663 0.1774815198
H 3.5154012854 -0.5371433591 1.6837710173
H 1.3923761340 0.4783819397 1.5316770060
H -3.1672361332 0.0894763006 -1.6542026974
H -2.3570928007 1.6837817002 0.6917796540
H -3.9680998961 1.6003042175 -0.0274457316
H -2.6548975469 -0.6053453243 1.6641742523
H -4.2809557465 -0.7034926013 0.9571020567
H -3.9335225781 0.4921501933 2.2202780528
