46
CONF47
C 0.2844731243 2.6752251073 -1.7875920276
C -1.1748772520 2.2397795338 -1.9050551934
C -2.1785227179 3.3213575194 -1.4894598592
C -2.0677979400 3.7488919254 -0.0407631186
O -2.3662615862 2.5820452991 0.7820250820
C -1.9022994991 2.6015231650 2.0362417949
O -1.3214772289 3.5241592406 2.5608364480
C -2.2325965343 1.3110175003 2.7902560719
C -3.5392236456 1.4854933408 3.5494181348
O -2.4023605400 0.1810229836 1.9354146721
C -1.3470385829 -0.2060507851 1.1618425213
C -1.6276149539 -1.2067097637 0.2261802954
C -0.6344273037 -1.6625475349 -0.6255805458
C 0.6394874554 -1.1135610849 -0.5398149983
C 0.9348345819 -0.1300766159 0.3875381349
C -0.0598961164 0.3305446431 1.2475926889
O 1.6207722138 -1.5159820898 -1.4502957817
C 2.4087267904 -2.5684459292 -1.1046514716
C 3.3794916257 -2.9502418076 -2.0415857746
C 4.2391958008 -3.9991555954 -1.8131965733
C 4.1407895319 -4.7082557590 -0.6052947799
C 3.1779280646 -4.3403898034 0.3404332214
C 2.3192362826 -3.2789573117 0.0919950878
C 5.0193343701 -5.7963406256 -0.3493711142
N 5.7339459225 -6.6836142243 -0.1392060105
F 3.4607952004 -2.2625605994 -3.1924791542
H 0.4726310940 3.5922452371 -2.3575041484
H 0.5703541611 2.8611719183 -0.7471467599
H 0.9522423893 1.8976328705 -2.1700135176
H -1.3865000286 1.9581761534 -2.9430510088
H -1.3404025807 1.3405691781 -1.3008064339
H -2.0305330486 4.2204327221 -2.1028579132
H -3.2007311358 2.9733923565 -1.6794986409
H -1.0695857847 4.1114003118 0.2188336216
H -2.7913762279 4.5315064984 0.2115401927
H -1.4083975565 1.1396236919 3.4958074502
H -3.7524213366 0.5821255728 4.1255298557
H -3.4584903168 2.3346663762 4.2319297037
H -4.3598473949 1.6613451621 2.8490646780
H -2.6359094437 -1.6015997271 0.1727689069
H -0.8403779531 -2.4293150340 -1.3647768909
H 1.9361286785 0.2851599139 0.4296263544
H 0.1844471922 1.1101586705 1.9593834187
H 4.9755865094 -4.2626944264 -2.5629801515
H 3.1051175166 -4.8904267009 1.2711837057
H 1.5734485154 -2.9937415534 0.8245625188
