26
CONF470
C -2.7707317675 0.0069278394 -0.4229883989
C -1.4447629353 -0.0989847607 0.3145831273
C -0.3838088679 0.8130543378 -0.3182716942
C 0.9481309858 0.8463983265 0.4455271282
C 1.6770793117 -0.4852545886 0.7109837006
C 2.1641323318 -1.2655543156 -0.5148713237
O 1.1045434465 -1.8456399529 -1.2981575759
O 2.8247592480 -0.2027002670 1.5243759557
O 1.8457612815 1.7517723566 -0.2133818863
O -0.1831916331 0.5153405827 -1.7016016262
O -1.7057128709 0.3167628506 1.6686954698
O -3.7544566610 -0.8533221309 0.1534841313
H -3.1051048613 1.0568703259 -0.4040734834
H -2.6468437395 -0.2989914824 -1.4639409605
H -1.1156026261 -1.1478814033 0.2992241691
H -0.7739073592 1.8396643321 -0.2913020706
H 0.7528498612 1.2822697317 1.4326071588
H 1.0332003834 -1.1391843294 1.3145582430
H 2.8464905326 -2.0486317699 -0.1649465979
H 2.7181863308 -0.6055405337 -1.1908696877
H 3.2805661827 0.5376084037 1.0962846724
H 1.7323494533 1.6033610245 -1.1649418449
H 0.1394820056 -0.4095596079 -1.7446503527
H -1.1588645368 -0.2019429397 2.2698622467
H 0.6825513046 -2.5387013555 -0.7733369665
H -3.7875072383 -0.6343164689 1.0948378258
