40
CONF4
C -1.4497836112 -0.1239955340 1.6773422065
C -0.6899945043 -1.4494787861 1.5125812852
C -1.2548559612 -2.4731375925 2.5118334517
C -0.8057981094 -2.0505532254 0.1088174589
C 0.0531019838 -3.0910924341 -0.2671182713
C -0.0494425130 -3.6835431995 -1.5200277481
C -1.0156772857 -3.2467668603 -2.4260175909
C -1.8749758768 -2.2157090013 -2.0631160066
C -1.7719052487 -1.6225218422 -0.8046144449
N 0.7369038877 -1.2661137510 1.8766621930
C 1.6004019629 -0.3402943168 1.3203110191
O 2.5436326966 0.1230795495 1.9771061388
N 1.4147533672 -0.0334228176 0.0002948465
C 2.1015064676 1.1054313928 -0.5990991498
C 1.4397809988 2.4235610242 -0.2665696026
C 2.0248009686 3.2980875606 0.6536609827
C 1.4163144078 4.4992481058 1.0040995968
C 0.1968954168 4.8512778814 0.4329883814
C -0.4106564600 4.0046173394 -0.4901891258
C 0.2185518531 2.8115714679 -0.8224457391
Cl -0.5760166318 1.7579057073 -1.9988557189
H -2.5272839032 -0.2675033843 1.5594909339
H -1.1184945912 0.6302044775 0.9569517645
H -1.2689031089 0.2579672794 2.6860871238
H -0.6982048696 -3.4130985918 2.4601043400
H -1.1980137157 -2.0788998546 3.5326473744
H -2.3027616213 -2.6736296832 2.2753897759
H 0.8177449991 -3.4249763474 0.4274497835
H 0.6299991382 -4.4852419736 -1.7932208178
H -1.0930227983 -3.7051109869 -3.4069461068
H -2.6289130410 -1.8629235060 -2.7602375058
H -2.4471804371 -0.8141331143 -0.5499779577
H 0.9107384394 -1.3517044705 2.8692184827
H 0.6000662554 -0.3894776603 -0.4786457776
H 2.1236356648 0.9509612454 -1.6817377609
H 3.1309985417 1.1210774565 -0.2359668993
H 2.9741232675 3.0172786675 1.0994953940
H 1.8933016779 5.1580522371 1.7222677377
H -0.2878185258 5.7850097576 0.6989530221
H -1.3575500803 4.2679984825 -0.9479214429
