37
CONF5
C -3.1933909229 -0.3605594791 1.3269367293
C -1.6637311506 -0.3140070037 1.3421722296
C -1.1157474171 -1.4369385745 2.2294528866
C -1.0772289376 -0.3907665381 -0.0994720831
C 0.4444336108 -0.1969635136 -0.1556111675
C 1.1693435831 0.4788921614 0.8281744889
C 2.5428396111 0.6659718038 0.7045641708
C 3.1870508844 0.1706095740 -0.4158923192
C 2.4962671740 -0.4900152333 -1.4198962121
C 1.1264007784 -0.6687662033 -1.2823685320
O 4.5660375604 0.4113495696 -0.5754594230
C 5.3958946928 -0.5377244515 -0.0769363190
F 5.2482820444 -0.7085352818 1.2568644079
F 6.6497197593 -0.1513529230 -0.3176920405
F 5.2032590803 -1.7488403366 -0.6467333249
C -1.7235854155 0.6670606904 -0.9804051735
C -2.6275703645 0.3581611982 -1.9947858984
N -3.2142071066 1.2995025432 -2.7430455031
C -2.8909338716 2.5618249394 -2.4618380144
N -2.0363079881 2.9804076967 -1.5228621020
C -1.4576403027 2.0231723465 -0.7973340879
O -1.4164248890 -1.6549817544 -0.6863215348
H -3.5740082465 -0.3953045796 2.3519168325
H -3.5427552143 -1.2551368856 0.8024562483
H -3.6268034170 0.5143625439 0.8361597516
H -1.3619157124 0.6535133416 1.7623791052
H -1.3981975998 -1.2626964872 3.2717508781
H -1.5497187347 -2.4015420287 1.9418145175
H -0.0256316377 -1.5188882244 2.1864676848
H 0.6752591386 0.8641724113 1.7124496086
H 3.1107065462 1.1870526350 1.4667087944
H 3.0277878944 -0.8489531683 -2.2938195953
H 0.5684043059 -1.1747375359 -2.0624520734
H -2.8852571775 -0.6746774747 -2.2094439193
H -3.3702246348 3.3346715655 -3.0619646928
H -0.7429551161 2.3522740084 -0.0428150375
H -0.9174498071 -2.3316114522 -0.2135138756
