54
CONF18
C 1.7967128842 0.7236326670 4.1907234531
C 1.5162122663 0.0416752949 2.8602405104
C 0.6978925618 0.8926533269 1.9195153642
O 0.3019441862 2.0144008217 2.1645600001
O 0.4767678400 0.2149032052 0.7773456578
C -0.3399506826 0.7376528013 -0.3292526222
C -1.7819120917 0.9605737622 0.1970496201
C -2.2950148571 -0.1668904323 1.0594770444
C -2.7496192981 -1.3660077923 0.4986167408
C -3.1944615042 -2.4085651950 1.3071744413
C -3.1975454800 -2.2706646195 2.6938772855
C -2.7637530857 -1.0764098453 3.2634768339
C -2.3187272291 -0.0352106110 2.4517458216
C -0.2755001988 -0.3669484289 -1.3832544301
C 0.7053349964 -1.3633707603 -1.3398354561
C 0.7792063247 -2.3393507067 -2.3311001663
C -0.1214345693 -2.3386791831 -3.3912358265
C -1.0993690668 -1.3495942086 -3.4484334252
C -1.1757950678 -0.3776083439 -2.4555645319
C 0.2941543963 2.0648588147 -0.8499170165
C -0.4767938862 2.7027009925 -2.0063099739
C 1.7635725202 1.8459380175 -1.2352241639
N 2.4537065724 3.0775379683 -1.6361625438
C 3.7756183504 2.7380643579 -2.1661288969
C 2.6008728592 4.0007777597 -0.5097235345
H 0.8651215294 0.9672047648 4.7088379123
H 2.3555077742 1.6520715141 4.0461965074
H 0.9742550683 -0.9017097375 2.9998504211
H 2.4452515586 -0.2228123112 2.3401338780
H -1.7974013562 1.8941108092 0.7647354093
H -2.4422390840 1.0928722229 -0.6622024467
H -2.7588216108 -1.4836324306 -0.5803753848
H -3.5452772779 -3.3298197491 0.8515576023
H -3.5455722532 -3.0834359668 3.3238307025
H -2.7746414449 -0.9511054899 4.3421439337
H -1.9895656880 0.8958046660 2.9038870671
H 1.4186297703 -1.3824661815 -0.5258067810
H 1.5475726978 -3.1041069134 -2.2695634254
H -0.0651342122 -3.1004705049 -4.1624034149
H -1.8143691662 -1.3340897504 -4.2652592688
H -1.9584213678 0.3686093536 -2.5258038738
H 0.2441213473 2.7459149076 0.0024594201
H -0.3805359319 2.1167652604 -2.9254976879
H 1.8001806295 1.1552121293 -2.0876829454
H 2.3029153297 1.3571335424 -0.3996988696
H 4.2876608034 3.6484215565 -2.4950839071
H 3.6706838200 2.0696332944 -3.0271873295
H 4.4166502941 2.2350967160 -1.4153906542
H 3.1333121519 3.5390599657 0.3458701620
H 3.1697049563 4.8788188249 -0.8321932354
H 1.6240583867 4.3453903871 -0.1581656472
H 2.3854489501 0.0635924052 4.8331058688
H -1.5388988373 2.8262514599 -1.7776559242
H -0.0589883673 3.6930078858 -2.2022132130
