29
CONF2
C 0.3820498015 -0.7698038766 -3.3616224149
C -0.9489123998 -0.2158929120 -2.9117163185
O -1.1327539948 -0.4534604834 -1.4802055968
P -0.8786682151 0.6844265524 -0.3986311513
S 0.2967353225 2.1585326169 -0.8050288295
O -2.3726861930 1.0350304471 0.0479533020
C -2.6824004795 2.2382362960 0.8132615920
C -2.2627936552 2.1128214707 2.2614246893
O -0.4563350185 -0.2402864778 0.9128812328
C 0.7675732095 -0.7981948420 1.0681643066
N 1.5288440809 -1.0249733604 0.0142846423
C 2.7136362020 -1.5833340354 0.1560416655
C 3.2142892967 -1.9693828970 1.4013779717
C 2.4193275668 -1.7397740770 2.5205049760
C 1.1801431167 -1.1426804747 2.3625940055
Cl 0.1692122110 -0.8287210674 3.7389961048
Cl 4.7707451699 -2.7116543388 1.5917021519
Cl 3.6467927859 -1.8330957412 -1.2951287997
H 0.4723243168 -0.6569894244 -4.4471330258
H 1.2032661937 -0.2341628828 -2.8807635198
H 0.4647716162 -1.8306544957 -3.1112158702
H -1.7904488224 -0.7297553115 -3.3841129337
H -1.0265420911 0.8572490244 -3.1148781286
H -3.7664169031 2.3336847276 0.7151749351
H -2.2000835981 3.0919792662 0.3250188193
H -1.1744785296 2.0699092589 2.3558969563
H -2.6193476379 2.9874745050 2.8149987850
H -2.6885957796 1.2135225075 2.7143401783
H 2.7707527187 -2.0200502710 3.5059227835
