66
CONF19
C 1.6102907142 0.1398023363 -3.7494577382
C 2.5059908494 -0.3378136761 -2.6260190871
O 2.0246256578 0.1160541369 -1.3323238471
C 2.3762192445 1.3744241274 -0.9566807931
O 3.0231868177 2.1180315137 -1.6843255955
C 1.9153679712 1.6647351504 0.3983381421
C 2.1656128573 2.8813638379 0.9617495460
N 1.8818306077 3.0672717928 2.2972925516
C 1.5790525792 2.0516668135 3.1761466855
C 1.3090484620 0.8105577245 2.6784837898
C 1.1753259148 0.5843528656 1.1764502525
C -0.3107228835 0.5103326593 0.8104705082
C -1.1119893308 1.6157812839 1.1152479327
C -2.4836891182 1.6082661963 0.9002287665
C -3.0926306839 0.4615720961 0.3914139024
C -2.3124927514 -0.6338963624 0.0614442804
C -0.9162733535 -0.6225944040 0.2250664152
C -0.1424147361 -1.8085582877 -0.1519157072
C -0.3246501130 -2.6313103508 -1.2015072963
C -1.2750402911 -2.5268993267 -2.3303045900
O -1.7106082342 -3.5222040730 -2.8902480357
O -1.5420566594 -1.2622238412 -2.6836491720
C -2.5405100993 -0.9316715365 -3.7376909177
C -2.5450785386 0.5919549631 -3.7120415214
C -2.0638295234 -1.4507921681 -5.0885724421
C -3.9101840027 -1.4768851224 -3.3508493064
C 1.0305475000 -0.3015808842 3.5816042417
O 0.9606812304 -0.2566328716 4.8032969312
O 0.8461449492 -1.4563048106 2.8848121971
C 0.4277029600 -2.6239329263 3.6393138983
C -1.0764967387 -2.6226097886 3.8236890904
C 1.5962055636 2.4551600119 4.6182937624
C 2.7673601396 4.0775010844 0.2908587469
H 0.5820426900 -0.1865006303 -3.5755596742
H 1.9545543622 -0.2913688738 -4.6952107411
H 1.6318838304 1.2288918264 -3.8357083509
H 3.5381643095 -0.0010297613 -2.7579475231
H 2.4870900738 -1.4276547735 -2.5452240684
H 2.0803715290 3.9752976033 2.6903181846
H 1.6371704615 -0.3691206738 0.9285763481
H -0.6485170923 2.4993114495 1.5438585893
H -3.0779902127 2.4814202919 1.1511449425
H -4.1692082328 0.4217144845 0.2578562465
H -2.7857290379 -1.5352917993 -0.3131078360
H 0.6531566636 -2.0886611998 0.5332689030
H 0.2741630436 -3.5368046148 -1.2527379039
H -1.5571081461 0.9859982948 -3.9673769504
H -3.2690844787 0.9662484883 -4.4409874345
H -2.8243124294 0.9554826000 -2.7184407782
H -2.0824288659 -2.5405392416 -5.1289710681
H -1.0483420805 -1.0986435633 -5.2937382924
H -2.7258173460 -1.0581814084 -5.8667945674
H -3.9292868829 -2.5673704271 -3.3614179728
H -4.1972321527 -1.1184610324 -2.3578455637
H -4.6459155581 -1.1077592594 -4.0719539062
H 0.9555457803 -2.6442980869 4.5962829239
H 0.7526008533 -3.4697595620 3.0283862808
H -1.3950258413 -1.7681474778 4.4269828356
H -1.5814087698 -2.5794750680 2.8536301091
H -1.3838248664 -3.5406385050 4.3343484829
H 2.3577748669 1.8953402606 5.1666788484
H 0.6393019115 2.2307953816 5.0938499340
H 1.8052165081 3.5233681521 4.7163831178
H 2.3088320861 4.2542036311 -0.6820914392
H 2.6455795560 4.9661366641 0.9158377654
H 3.8358559066 3.9204167954 0.1154087041
