49
CONF35
C -5.2949144658 -0.5344306578 -2.6090555437
C -4.0783429825 -1.1771197949 -1.9358329413
C -3.0423432074 -1.5878370309 -2.9865714415
C -3.4572063722 -0.2149914267 -0.9224692964
C -4.3334659913 0.2128344745 0.2911354392
C -4.4725019880 -1.1341592301 1.0643408038
C -3.0838186655 -1.8045251812 0.8554378449
C -2.3135369682 -0.7728961142 -0.0256330325
C -2.0773820764 0.4232640163 0.8591862881
C -3.3300423970 1.0257220227 1.0698165534
C -3.4834145431 2.0912252301 1.9417255123
C -2.3481617763 2.5775775019 2.6005353477
C -1.1002281388 2.0008277627 2.3879175734
C -0.9569109949 0.9114710522 1.5156225060
N 0.3297128172 0.3292998995 1.3545442224
C 0.9640689929 0.1752794316 0.1572088277
O 0.4364054315 0.4294659479 -0.9279143247
C 2.3484435264 -0.3444326270 0.2135004845
C 2.9550268332 -0.9466300290 -0.8802471521
N 4.2093891341 -1.2741831705 -0.5141563682
N 4.4869699055 -0.9136977893 0.7478171660
C 3.3640001841 -0.3532013063 1.2054280205
C 3.4033935016 0.1944065425 2.5844166984
F 3.0404867617 1.5260005701 2.5932931128
F 2.4740244243 -0.4447923468 3.3998420068
C 5.2250387262 -1.9376414523 -1.3214963555
H -5.7210108150 -1.2060938537 -3.3617551632
H -5.0068159678 0.3970389830 -3.1117253958
H -6.0804555864 -0.2989444217 -1.8843463670
H -4.4165042977 -2.0844121340 -1.4198910647
H -3.4906593228 -2.2528555210 -3.7322695558
H -2.6575456494 -0.7041529672 -3.5103448906
H -2.1923830480 -2.1104587767 -2.5367685953
H -3.1061195333 0.6757079090 -1.4626834195
H -5.2788136013 0.7154318911 0.0804735443
H -5.2787065892 -1.7374239557 0.6358439195
H -4.7059964956 -0.9630178497 2.1184724545
H -3.1743448707 -2.7582491262 0.3267905410
H -4.4568880445 2.5416758124 2.1130346863
H -2.4342758456 3.4221549712 3.2773090448
H 2.5663344466 -1.1576849105 -1.8656043476
H 4.3879191143 0.0922745484 3.0486156969
H 5.5130068911 -2.8798489879 -0.8490634115
H 6.1005676880 -1.2905057508 -1.4139543134
H 4.8052012927 -2.1330214861 -2.3084268825
H -2.5586491950 -1.9930033127 1.7956586226
H -1.4347249837 -1.1688942386 -0.5303246258
H 0.8558382963 0.1644820183 2.2006825235
H -0.2208112897 2.3967924114 2.8878154993
