71
CONF174
C 3.5287779330 -2.4102542611 -0.4652279430
C 4.7697439530 -2.7908749670 0.2919869887
C 5.2935302878 -1.9430402227 1.2835339734
C 6.4473571976 -2.2811568227 2.0095756209
C 7.0923940128 -3.4807252253 1.6934562154
C 6.5972498453 -4.3257000288 0.7076601564
C 5.4365440885 -3.9854733604 0.0194485746
C 6.9697685301 -1.4118314809 3.1164552739
N 4.6015591818 -0.7374500818 1.5709584187
C 5.1092494281 0.5125728972 1.4273492182
O 6.2494344694 0.7655280501 1.0400678647
C 4.1522438027 1.6241001338 1.8541125217
N 2.7489480977 1.2353021998 1.7886594183
C 2.2354222325 1.3423096078 0.4167132222
C 0.8002612505 0.8486826039 0.3482598579
N -0.0552915463 1.6354149936 1.2437849693
C 0.4657182444 1.5323353718 2.6119389516
C 1.9012728071 2.0276504892 2.6866070905
C -1.4509715084 1.1808014140 1.2038468694
C -2.1419560968 1.4508462569 -0.1292479226
C -3.6309159969 1.1170557073 -0.0596985182
C -4.3516250201 1.3653264673 -1.3956469157
C -3.8102835631 0.4574406923 -2.4887894100
C -3.0374834713 0.9732389079 -3.5303838976
C -2.5119293054 0.1438365643 -4.5203325675
C -2.7768702183 -1.2111777881 -4.4430654179
C -3.5407752544 -1.7668713390 -3.4292536396
C -4.0562967948 -0.9186932429 -2.4549335328
F -2.2706001346 -2.0333789294 -5.4010841785
C -5.8648151404 1.2472371234 -1.3091436772
C -6.6444031593 1.8777135979 -2.2861019430
C -8.0311832225 1.7792933772 -2.2850655484
C -8.6308702857 1.0325114124 -1.2839790097
C -7.9044512882 0.3934254818 -0.2970400925
C -6.5143661315 0.5072985458 -0.3188291304
F -9.9870884028 0.9296464517 -1.2702910689
H 3.2831605257 -3.1740796767 -1.2059488793
H 2.6655258417 -2.2937572234 0.2007527709
H 3.6626082643 -1.4544404235 -0.9836394123
H 7.9860988566 -3.7569931717 2.2459486850
H 7.1096634552 -5.2557745002 0.4816330621
H 5.0433042978 -4.6472174652 -0.7470027544
H 7.6252414982 -1.9869628704 3.7744878277
H 6.1514155082 -0.9946192559 3.7117812126
H 7.5358388455 -0.5649072619 2.7151838609
H 3.6058440037 -0.7615809489 1.7765980889
H 4.4126251248 1.8636866983 2.8940703431
H 4.3890913470 2.5152437496 1.2486200448
H 2.2826809963 2.3895767394 0.0620392703
H 2.8607333536 0.7352379259 -0.2483251571
H 0.7705303181 -0.2290642841 0.6113393528
H 0.4467713623 0.9511309209 -0.6822413061
H -0.1598311455 2.1415535600 3.2747404266
H 0.4271974724 0.4861552692 2.9776516150
H 2.2703150296 1.9167112954 3.7124692121
H 1.9334070991 3.1023237339 2.4240689541
H -1.9907469970 1.7164853892 1.9960296940
H -1.5238836275 0.0996542586 1.4425442401
H -2.0098600685 2.5073393215 -0.3977122564
H -1.6825431080 0.8571117256 -0.9273097942
H -3.7517077623 0.0670922451 0.2367138165
H -4.1103547633 1.7270481558 0.7169873807
H -4.1310651698 2.3968354593 -1.6993312094
H -2.8358104599 2.0399931826 -3.5703343700
H -1.9104712875 0.5377054448 -5.3325215939
H -3.7275730819 -2.8352474594 -3.4109472360
H -4.6649341733 -1.3377613531 -1.6584935346
H -6.1556133034 2.4568591633 -3.0652930456
H -8.6378934650 2.2706101658 -3.0381351792
H -8.4135027639 -0.1779867423 0.4717059611
H -5.9435610564 0.0090978307 0.4570276311
