41
CONF2
C -4.1728028538 -2.8560080273 3.0244860902
C -3.4145222391 -2.0124738013 2.0494379839
C -3.9057975247 -0.7735330554 1.6319044900
C -3.1533569927 -0.0373780626 0.7271724716
N -1.9840498181 -0.5152960730 0.2621857596
C -1.6065334799 -1.7177268459 0.7025872251
N -2.2556036230 -2.4941125133 1.5796667975
N -0.4192256497 -2.2665200594 0.2257885775
C 0.4902678541 -1.8055510041 -0.7180191006
O 1.4825935288 -2.4613357061 -1.0052197486
N 0.1815586197 -0.5865921414 -1.2808585473
S 1.2370270109 0.2310611076 -2.3218529315
O 0.6346434290 1.5666798186 -2.4441490699
O 1.4518761099 -0.5883742712 -3.5168810310
C 2.8156016602 0.3870517928 -1.4721483515
C 3.8436835857 -0.4578436494 -1.8771470191
C 5.1165230536 -0.2868773458 -1.3441510704
C 5.3594016575 0.7397951520 -0.4371187798
C 4.3304852539 1.5923204066 -0.0519105169
C 3.0395503588 1.4172660329 -0.5511483222
C 1.9899050184 2.3632438069 -0.0593119487
O 2.0880356206 3.5690068592 -0.1319483880
O 0.9868793575 1.7096247569 0.5395886868
C -0.0883756474 2.5422272430 1.0473949867
C -3.5831869722 1.3102259884 0.2445423700
H -3.5962335732 -3.7381266631 3.3045349160
H -4.4156673832 -2.2765433209 3.9205320771
H -5.1223353992 -3.1751447489 2.5809123440
H -4.8509947944 -0.3958127227 2.0053150743
H -0.1872149421 -3.1761839850 0.6026092840
H -0.6190093728 -0.0669517366 -0.8788747497
H 3.6473063384 -1.2320386914 -2.6082608666
H 5.9184653693 -0.9490096056 -1.6519493677
H 6.3546934028 0.8833326048 -0.0301629278
H 4.5164084436 2.3980649143 0.6505141658
H -0.6022588118 3.0258165595 0.2127875882
H 0.3098619981 3.2945556377 1.7312667670
H -0.7550554571 1.8575941869 1.5689810367
H -4.6715352268 1.3673528845 0.1713727654
H -3.1305613413 1.5361784262 -0.7229652643
H -3.2604464677 2.0780353438 0.9576550534
