44
CONF35
C -4.8961551756 -0.4324326465 1.7671402463
C -3.4379228087 -0.1189818214 1.5059190187
C -2.4541565429 -1.1489183217 2.0878542626
O -2.1484661814 -1.9945633843 0.9641408923
C -2.1194237247 -1.1090329305 -0.1390209089
O -3.1908115425 -0.2035065468 0.0733046841
C -2.4448374170 -1.9305866847 -1.3962335001
N -2.4310435064 -1.1006640924 -2.5863553306
C -3.4055834889 -0.3014510259 -3.0652601304
N -2.9716478429 0.3635995749 -4.1293143859
C -1.6867456160 -0.0749113316 -4.2532346421
N -1.3111597794 -0.9614652756 -3.3405349783
C -0.7930253309 -0.3486662603 -0.2380458165
C -0.8091687097 1.0431734959 -0.3719669658
C 0.3516070064 1.7933984348 -0.4809497447
C 1.5803865991 1.1424993976 -0.4624729670
C 1.6471716732 -0.2432820661 -0.3466805035
C 0.4635685322 -0.9622358870 -0.2380904093
Cl 0.6399496650 -2.7134240262 -0.1255089981
O 2.6996414949 1.9233347181 -0.6329068042
C 3.9146955818 1.4911431784 -0.1236711637
C 4.0441440801 1.1067918116 1.2081196089
C 5.2964937480 0.7547246414 1.6979724427
C 6.3946773977 0.8047357989 0.8458905739
C 6.2726261455 1.1979191055 -0.4810406213
C 5.0155233756 1.5406392473 -0.9697429023
Cl 7.9811959107 0.3607691003 1.4672681324
H -5.5409467536 0.2458220615 1.2012259349
H -5.1164802213 -0.3093551928 2.8322074383
H -5.1206461375 -1.4633943356 1.4753506629
H -3.1872685538 0.8945295827 1.8413241252
H -1.5395523281 -0.6703833906 2.4605928588
H -2.8957428426 -1.7729746271 2.8666551933
H -1.7176112112 -2.7322268622 -1.5282482057
H -3.4432816827 -2.3560937227 -1.2693481843
H -4.3905950098 -0.2491210187 -2.6208861418
H -1.0142534751 0.2576737299 -5.0340004020
H -1.7698707717 1.5444001475 -0.3838300537
H 0.3149183801 2.8726004667 -0.5795188472
H 2.6002594715 -0.7582855118 -0.3508578952
H 3.1774861158 1.0832459563 1.8603341790
H 5.4133237026 0.4550462274 2.7331490539
H 7.1401497905 1.2322592505 -1.1300375623
H 4.8885769784 1.8476512155 -2.0022136608
