33
CONF26
C 0.0271851582 1.4200487272 3.6606319140
C 1.5289696026 1.6703794124 3.4681159400
C 2.0846849845 0.9076274565 2.2975642078
C 2.8550010408 -0.1780333517 2.4186379885
C 1.7049317585 1.4375157228 0.9603517569
O 1.1090950819 2.4814953423 0.7900271279
O 2.0978167407 0.6357061620 -0.0634567090
C 1.7285300976 1.0803796658 -1.3822445765
C 0.2469175589 0.8764570055 -1.6805214936
C -0.2097135723 -0.5580305453 -1.4944608054
C -1.5933284709 -0.8276146550 -2.1591583348
C -2.2818313735 -2.1715696715 -1.7552248359
C -3.4211423709 -2.6264744140 -2.7239111711
F -4.2791968058 -1.6201680333 -2.9469126818
F -2.9223242343 -3.0436764566 -3.8930919676
F -4.0875962308 -3.6437329882 -2.1593972358
F -1.3660707605 -3.1661325735 -1.7165956679
F -2.8279914938 -2.0270784494 -0.5277074892
F -2.4313720794 0.1869884418 -1.8229497857
F -1.4239815439 -0.8060055270 -3.5084880172
F -0.3274246051 -0.8675784855 -0.1671109698
F 0.6910429256 -1.4282260239 -2.0418560753
H -0.3482692099 1.9851478335 4.5186819547
H -0.1678435335 0.3578098716 3.8363762184
H -0.5347624265 1.7327432211 2.7769430125
H 1.6982281828 2.7410298701 3.3114268772
H 2.0744980885 1.3742676947 4.3696593004
H 3.2189118079 -0.7191840515 1.5538910551
H 3.1367705936 -0.5455931125 3.4008703075
H 2.3489936628 0.4871562972 -2.0558507523
H 1.9665433966 2.1424153488 -1.4955680098
H -0.3649548731 1.5199315712 -1.0452726707
H 0.0696819133 1.1627203777 -2.7233987076
