21
CONF39
C 1.4284955380 -1.7406813463 0.9415814612
C 1.3716071507 -0.3341808301 0.3409546315
C -0.0376773268 0.0753044698 -0.0068598003
C -0.1339945835 1.5010153531 -0.6198569067
C -1.5514563422 2.0127225397 -1.0189025232
F -1.4373318537 3.2552239080 -1.5207891577
F -2.3657979368 2.0603295577 0.0437929785
F -2.1032235829 1.2294219471 -1.9551783887
F 0.6303187209 1.5392087750 -1.7425298582
F 0.3685607156 2.3905882112 0.2761206687
F -0.8435664613 0.0547733161 1.1046245530
F -0.5925410845 -0.7949855279 -0.9129066071
C 2.8606089641 -2.1713425783 1.2395399157
O 3.4872845903 -1.3671609034 2.2513579804
H 0.8421153242 -1.7808740305 1.8656731760
H 0.9970966095 -2.4642913886 0.2403210543
H 1.9726124128 -0.2832734003 -0.5735980121
H 1.7649342165 0.4055777084 1.0457833090
H 3.4596066648 -2.1628842573 0.3180575769
H 2.8521500609 -3.1946848086 1.6273898279
H 3.8080185823 -0.5573458597 1.8375800472
