59
CONF1
C -2.4301456211 0.2171639495 4.3088864020
O -2.4427871757 0.2142581876 2.8759021781
C -1.2543089597 0.1792133155 2.2122280125
C -1.2988524812 0.1636887343 0.7926587409
C -0.0713465549 0.1330274509 0.1336281302
C 1.1687713450 0.1101303511 0.7923892334
C 1.1663931891 0.1267834071 2.1875052640
C -0.0308743991 0.1625944366 2.8886911891
C 2.4296216091 0.0678203265 0.0300474310
C 3.5370612918 -0.6106727268 0.5150550525
C 4.7529652052 -0.6457046956 -0.1981260070
C 4.8448807888 0.0284540514 -1.4569277347
C 3.7035500675 0.7136862743 -1.9433787305
C 2.5365033783 0.7329531442 -1.2242889234
C 6.0589098526 -0.0046068729 -2.1729603765
C 7.1539010743 -0.6855223951 -1.6717620542
C 7.0606533342 -1.3589757735 -0.4261133649
C 5.8922617060 -1.3391887887 0.2885039163
C 8.4409645940 -0.7402559104 -2.3959302186
O 8.4232039226 -0.0667850108 -3.5677177701
O 9.4312070628 -1.3271802746 -1.9946279605
C -2.6160426832 0.1762617577 0.0138713956
C -3.4696098694 -1.0703644672 0.3663667641
C -4.8086568831 -1.0414147188 -0.3845636327
C -4.5535189618 -1.0623352796 -1.8962667793
C -3.7220114253 0.1682436664 -2.2791824172
C -4.5042294509 1.4402495060 -1.9295395441
C -4.7591981348 1.4693080049 -0.4180063254
C -5.5773124502 0.2347836776 -0.0095788496
C -3.4189954615 1.4654831250 0.3312821903
C -2.3883069381 0.1510864584 -1.5148080252
H -1.9509814560 -0.6870528322 4.7016313284
H -3.4785288040 0.2362749180 4.6082593495
H -1.9199647376 1.1058380109 4.6979615156
H -0.0644428342 0.0978672084 -0.9477518441
H 2.1012868693 0.1396455480 2.7387525776
H -0.0021766803 0.1908115210 3.9704956342
H 3.4759089792 -1.1509406682 1.4552610286
H 3.7722155247 1.2366806418 -2.8931031004
H 1.6841622197 1.2870793613 -1.6037934190
H 6.1190266111 0.5131420547 -3.1241298005
H 7.9305008135 -1.8871366531 -0.0519071926
H 5.8229887681 -1.8540484897 1.2423878390
H 9.3021991221 -0.1543548142 -3.9726587796
H -2.9032851326 -1.9713123387 0.0936842989
H -3.6537889304 -1.1082667293 1.4425155710
H -5.3962115937 -1.9224828523 -0.0954776786
H -5.5068943545 -1.0549219402 -2.4411264166
H -4.0203376899 -1.9809141486 -2.1749892052
H -3.5078080481 0.1496774312 -3.3555000213
H -5.4570052179 1.4558919003 -2.4752521199
H -3.9352699049 2.3293842730 -2.2319847813
H -5.3111255304 2.3802637307 -0.1523343766
H -5.7681403060 0.2528761166 1.0717463303
H -6.5509593920 0.2470835709 -0.5169882933
H -2.8178323979 2.3348028968 0.0318441926
H -3.5993544988 1.5422556884 1.4059135010
H -1.7903448738 1.0206870874 -1.8182883457
H -1.8284884802 -0.7510134938 -1.7950439663
