50
CONF10
C 1.6089391035 -2.6501277089 0.1324878459
C 1.8791409060 -1.1979772020 0.4423109745
C 1.2774749570 -0.6233398407 1.5632333894
C 1.6495992147 0.6727971380 1.9673000300
C 2.6137723350 1.3927358980 1.3069714009
C 3.2235538307 0.8610016349 0.1524719481
C 2.8003105813 -0.4205534833 -0.3205944298
C 3.3622005867 -0.7748579503 -1.6078283382
N 4.3443759485 -0.0723784866 -2.1612265102
C 4.7524066191 1.0524880923 -1.5263103307
N 4.1998624098 1.5964883197 -0.4512488015
N 5.8480345225 1.6702417486 -2.0688951813
N 2.9143354140 -1.8263663862 -2.3417359667
C 0.2252987622 -1.3502986458 2.3849301916
N -0.9520662810 -1.8151360908 1.6512465908
C -1.6868011613 -0.9629556749 0.8370775585
C -1.7005020747 0.4208450423 1.0604150660
C -2.4978484385 1.2404068923 0.2585818063
C -3.2845873725 0.7020032965 -0.7677262057
C -3.2666231875 -0.6855319584 -0.9771188607
C -2.4665251479 -1.5154618681 -0.1932816354
O -4.0612243383 -1.1280968747 -1.9929473492
C -4.0783087456 -2.5359922540 -2.2520681828
O -4.0352473441 1.5235124710 -1.5826445091
C -5.3694236466 1.7346046839 -1.0825187200
O -2.5687226441 2.5949451290 0.3982057656
C -1.7333897002 3.2005976386 1.3916378033
H 2.4871346443 -3.1371098369 -0.2940835200
H 1.3570702685 -3.1898729071 1.0475976414
H 0.7668325756 -2.7854874482 -0.5594851942
H 1.1730196487 1.1018237278 2.8460595208
H 6.0044349681 2.6273960541 -1.7938624304
H 6.0658447466 1.4434921733 -3.0265026075
H 1.9974815857 -2.2027821610 -2.1768797087
H 3.2432932166 -1.8628927422 -3.2951042688
H 0.6549450923 -2.2318390967 2.8747398990
H -0.0944817408 -0.6844077259 3.1959416057
H -0.8690266199 -2.7509330183 1.2849732979
H -1.1038413919 0.8478646909 1.8524837187
H -2.4420738296 -2.5861399478 -0.3580021192
H -4.4392591335 -3.0940728129 -1.3798987097
H -3.0826112555 -2.8973777923 -2.5354469857
H -4.7679523480 -2.6733684676 -3.0855887668
H -5.8691181672 2.3978594703 -1.7921739221
H -5.9127014788 0.7838352288 -1.0207642800
H -5.3401171236 2.2073821040 -0.0933303697
H -0.6746693155 2.9891372186 1.1977754108
H -1.9140164479 4.2731740283 1.3132107972
H -2.0001433400 2.8559442802 2.3978931998
H 2.9260424924 2.3729156481 1.6523079372
