51
CONF230
C 5.1157427222 -0.1038154326 4.1460205798
C 4.2551285233 0.0048776739 2.9171061028
C 4.7055312281 -0.4577056189 1.6775610873
C 3.8940448672 -0.3893807247 0.5480767785
C 2.6102000033 0.1486772700 0.6239825889
C 2.1559776275 0.6164010992 1.8580240869
C 2.9667514220 0.5451127845 2.9863135029
C 1.7535890308 0.2661940442 -0.6244251338
C 1.8026228199 1.6810646041 -1.2015050637
N 0.3600499714 -0.0899479119 -0.3648153289
C -0.0391896316 -1.3656032729 -0.1877434056
O 0.7252644207 -2.3297477463 -0.2568813387
C -1.5224062769 -1.5565721934 0.1695280778
C -1.7597753280 -1.3645218912 1.6846150553
C -3.1789438677 -1.8004494087 2.0615827499
C -0.7322593876 -2.1292689052 2.5196905792
N -2.3893477749 -0.6515274804 -0.5690795169
C -2.4367358331 -0.6787840332 -1.9251681158
O -1.8249039096 -1.4815152141 -2.6173592248
O -3.2539381522 0.2947949841 -2.3966621411
C -3.3171001944 0.4464098794 -3.8543260689
C -2.1154921253 1.2455099809 -4.3259909282
C -4.6370033763 1.1346505370 -4.1363125774
H 4.9365825169 -1.0544111232 4.6627942389
H 6.1780017701 -0.0648323311 3.8899994704
H 4.8961338326 0.6998727165 4.8542662595
H 5.7024383953 -0.8835456799 1.5967888429
H 4.2621963452 -0.7634130041 -0.4043017077
H 2.5939189922 0.9141644722 3.9385666059
H 2.1405904958 -0.4410824960 -1.3675248720
H 2.8369589801 1.9528344115 -1.4256431375
H 1.2137425104 1.7429589085 -2.1223596086
H 1.4094114985 2.4026815721 -0.4768835263
H 1.1565650253 1.0355799772 1.9409380735
H -1.7533870028 -2.5957634099 -0.0975980637
H -1.6451362589 -0.2907262083 1.8973455967
H -3.3544977379 -1.6203532008 3.1264908702
H -3.9480867708 -1.2638384579 1.4989887546
H -3.3046000630 -2.8726919711 1.8728249635
H 0.2854590207 -1.7648224567 2.3548708719
H -0.9666076189 -2.0143339798 3.5821932223
H -0.7548666431 -3.1977430034 2.2783243568
H -2.8935606847 0.0741764773 -0.0820521436
H -3.3047267272 -0.5566339777 -4.2916772057
H -2.1187721279 2.2398872807 -3.8676093874
H -1.1823040412 0.7364368303 -4.0713682831
H -2.1575615042 1.3647978759 -5.4130170992
H -4.7557551261 1.2636609256 -5.2158557516
H -4.6638460882 2.1221726075 -3.6648372588
H -5.4750708785 0.5398014028 -3.7632029276
H -0.3230332704 0.6504384413 -0.2920160082
