54
CONF94
C -3.4346157643 1.5295799824 -0.9541355006
C -2.3994999901 0.4677267275 -0.5089722441
C -2.2289797884 0.5482460531 1.0195794993
C -3.4748945052 0.0914034422 1.7781326658
C -3.9956582007 -1.2546685064 1.3094205573
O -4.6831803307 -1.9613459368 2.0327286506
C -3.6617872152 -1.6520623405 -0.0594249841
C -2.9338905298 -0.8922494829 -0.9011346686
C -2.5530574570 -1.3674030320 -2.2658661027
C -1.0447717140 -1.6662457128 -2.2409843281
C -0.2038336217 -0.4360415876 -1.8203355677
C -1.0755758867 0.7595927715 -1.3288589712
C -0.2474674088 1.8365248079 -0.6423929597
O -0.5146016064 3.0147863002 -0.7883175363
C 0.8946623141 1.3982998544 0.2480392411
C 1.8147815517 0.3590684403 -0.4207373602
C 0.9830957123 -0.8416687704 -0.9342967162
C 0.7000469783 -1.7079928712 0.3149329338
C 1.7490936396 -1.2920782399 1.3715460946
C 2.7242445446 -0.3586599246 0.6405663198
C 3.4347295377 0.5939214907 1.5944399229
O 2.8350584580 1.2281975730 2.4450413161
C 4.9374278188 0.7450160994 1.4813571155
O 5.4312386729 1.7042834806 2.3750833392
O 3.6772076333 -1.2118787132 -0.0071358039
C 2.6091635640 1.0536624898 -1.5297742676
H -3.6504970490 1.4380681836 -2.0227590463
H -4.3759669181 1.4072142470 -0.4141897760
H -3.0384616570 2.5329629150 -0.7715385636
H -1.3980369102 -0.0935153896 1.3278810874
H -1.9714453654 1.5741783894 1.3090498884
H -3.2821732783 0.0228106739 2.8525576713
H -4.2956284870 0.8106804345 1.6616241152
H -4.0518812048 -2.6159106790 -0.3783625565
H -2.7726121622 -0.5997627300 -3.0196898332
H -3.1137312825 -2.2668637716 -2.5347158398
H -0.7185790946 -2.0290128851 -3.2214965264
H -0.8899708871 -2.4866525001 -1.5334386378
H 0.2545616795 -0.0428458719 -2.7374515466
H -1.4325000721 1.2476782324 -2.2412943104
H 1.4461232292 2.2923298380 0.5471821822
H 0.4541396989 0.9801295580 1.1592619478
H 1.6517104085 -1.4274829069 -1.5778973696
H -0.3166977920 -1.5651266133 0.6902108779
H 0.7914944851 -2.7690362823 0.0723455642
H 1.2984519707 -0.7578328324 2.2110102276
H 2.3030981691 -2.1412835554 1.7786400182
H 5.3888259488 -0.2446716972 1.6578479983
H 5.1905575675 1.0166047817 0.4407357235
H 4.6619564139 2.0075378421 2.8869264946
H 4.1259142995 -0.7157696631 -0.7017896394
H 1.9330408491 1.5829754300 -2.2090205087
H 3.1773952433 0.3466228456 -2.1447816938
H 3.2919749811 1.8079593315 -1.1221977078
