27
CONF10
C 3.4644579807 1.4627902675 -0.9082525087
C 3.2164136245 0.1193551270 -0.6462491812
C 2.0660973136 -0.2629900979 0.0428597346
C 1.1420466671 0.6960693273 0.4855128237
C 1.3983840829 2.0391823545 0.2169769170
C 2.5472408986 2.4083198350 -0.4719173347
Cl 2.8455527860 4.1170496997 -0.7944454102
C -0.1015458855 0.2753061962 1.2151511456
C -1.1933775932 -0.2846657507 0.3267397204
C -2.3461900554 -0.8181255127 0.9251977892
C -3.3801241313 -1.3391075077 0.1504109608
C -3.2878896168 -1.3353581306 -1.2384698079
C -2.1501996019 -0.8028081992 -1.8252294946
C -1.1112012812 -0.2818678430 -1.0625665458
Cl -2.0113373276 -0.7860665546 -3.5856506411
O -2.3966819205 -0.7952851681 2.2900984680
O 1.7794640108 -1.5695205098 0.3133162881
H 4.3586222200 1.7608250565 -1.4436537275
H 0.6930608770 2.7937338400 0.5497334602
H 0.1493737039 -0.4816698590 1.9671719044
H -4.0909138116 -1.7404532432 -1.8433118493
H -0.2322639146 0.1279623781 -1.5482196152
H 2.4831328828 -2.1341971547 -0.0336101282
H -0.5045187121 1.1319334407 1.7681143432
H 3.9230303213 -0.6352574406 -0.9807630262
H -4.2632851168 -1.7499585351 0.6322522979
H -3.2284730814 -1.1859804882 2.5894106057
