56
CONF12
C 1.4445435020 -0.7407795794 -0.1667313120
C 2.1964059983 -1.1661521340 1.1150083537
C 2.5184307927 -2.6598990741 1.1264040189
C 3.4206384121 -0.2962422893 1.3397817673
C 3.3251472297 1.0944201907 1.0839319910
C 4.4122837972 1.9496603591 1.4039375773
O 4.3560515760 3.2796037424 1.2109731799
C 5.5945857130 1.4140954940 1.9202256919
C 5.6803735053 0.0512809977 2.1358134488
C 4.6042375651 -0.8003349716 1.8604702933
C 2.1368921040 1.6391630723 0.4519487115
O 1.9738737886 2.9089364850 0.3838369439
C 1.1885727111 0.7511795180 -0.1596677448
C 0.1650698023 1.2976594821 -0.8911375402
O -0.0526198637 2.5989400607 -1.0103402738
C -0.7588460126 0.3885598596 -1.6774502797
O -0.0758451667 -0.0257308694 -2.8536364317
C -2.0349534401 1.1463468983 -2.0794697603
O -2.1019414063 1.5749760341 -3.2379457431
C -3.0257591707 1.3499375265 -1.0606131382
C -4.1401179731 2.3004656315 -1.2101398182
N -4.3291813810 2.9094660292 -2.3802847955
O -4.9037544338 2.5307561859 -0.2244160749
C -2.8995040700 0.6886935251 0.1620561545
O -3.7011108203 0.9549629648 1.1543950731
C -1.9059906697 -0.4198115416 0.4302423345
N -2.5255120920 -1.6175362855 1.0051871219
C -2.6393606618 -1.6234450974 2.4630812345
C -3.7714066904 -2.0387105657 0.3630539994
C -1.0887604301 -0.8232379265 -0.8132620755
C 0.1693335388 -1.5964298346 -0.3666595626
O 0.5146096310 -2.6305733629 -1.2965853096
H 2.0950967370 -0.9643517534 -1.0260800829
H 1.5143609718 -0.9567696696 1.9568268148
H 1.6210875880 -3.2544822180 0.9495815222
H 3.2453266811 -2.9074754488 0.3454469063
H 2.9271358757 -2.9650615571 2.0926646820
H 3.4406473533 3.4720530131 0.8766487596
H 6.4199505634 2.0811883886 2.1447001480
H 6.5988678878 -0.3668330336 2.5366973278
H 4.7112038969 -1.8574390931 2.0646299754
H 0.6976289930 3.0339895165 -0.4783390390
H -0.3728951346 0.5884970510 -3.5500448307
H -3.7076145629 2.7057738308 -3.1532831011
H -5.0852573022 3.5706106637 -2.4733200506
H -4.3616617599 1.6952514039 0.7600992314
H -1.2125747413 -0.0171936446 1.1844043727
H -3.4246770536 -0.9523018471 2.8449315393
H -2.8736481457 -2.6427960660 2.7906780086
H -1.6823885131 -1.3317490074 2.9081678687
H -3.9873748115 -3.0711707420 0.6566955094
H -3.6693236781 -2.0128949621 -0.7263809718
H -4.6369249793 -1.4155260411 0.6457044386
H -1.6998338841 -1.4967424214 -1.4252835843
H -0.0937238464 -2.0548403704 0.5970338751
H -0.2097939013 -3.2699564216 -1.3022867445
