51
CONF123
C 1.4403656895 -3.3473411669 0.3811398342
C 1.1091168415 -1.9202881166 -0.0030791260
C 0.3778940951 -1.8106601016 -1.3280021549
O 2.4181802877 -1.2521531821 -0.1143177201
C 2.4868141166 0.0789552233 -0.0733258403
N 3.7101722950 0.5613019673 -0.3131796485
C 3.8023084491 1.8949424604 -0.2816388732
C 2.7526928331 2.7497258121 -0.0365436357
C 1.5256675859 2.1092404462 0.2055789690
N 1.3860777495 0.7911979963 0.1975427839
O 0.4741919058 2.8988709311 0.4495665990
C -0.7991587080 2.2739703401 0.7412547552
C -1.4761820416 1.7010519291 -0.4775269262
C -1.0254248210 1.9914156106 -1.7654232567
C -1.6485817963 1.4378909624 -2.8793757840
C -2.7387020750 0.5870451432 -2.7150053971
C -3.2047503699 0.3076063378 -1.4356682082
C -2.5897284498 0.8602574046 -0.3075385768
C -3.1368178181 0.5785740170 1.0437264519
C -3.7388041286 1.5363205389 1.7875403411
O -3.8748000824 2.7851587078 1.3406822837
C -4.5156440893 3.7086581917 2.2570288506
C -3.0841034501 -0.7622106257 1.6415475608
O -3.5230616589 -1.0723273038 2.7400839979
O -2.4712921365 -1.6487249247 0.8246327599
C -2.3953391237 -3.0030285540 1.3251394232
C 5.1973025712 2.4218464182 -0.5519582658
F 5.6355815555 2.0408136946 -1.7741430148
F 6.0836036477 1.9477880757 0.3535212938
F 5.2511297277 3.7678123415 -0.5045261122
H 2.0476769978 -3.8213368217 -0.3963109796
H 0.5153106904 -3.9186466931 0.4925311121
H 1.9849023451 -3.3797790248 1.3286309392
H 0.5459281906 -1.4244666817 0.7937290615
H 0.1711826332 -0.7677792039 -1.5830196704
H 0.9722592308 -2.2681754084 -2.1254894249
H -0.5772739359 -2.3395327214 -1.2590864213
H 2.8434187845 3.8267006590 -0.0238612201
H -0.6617031269 1.5037667278 1.5063745515
H -1.3901737824 3.0889718355 1.1672284141
H -1.2795092893 1.6695252796 -3.8736001088
H -3.2283720212 0.1484833882 -3.5787332734
H -4.1382137284 1.3112921978 2.7754978010
H -5.5277336099 3.3632323795 2.4860764009
H -3.9232525181 3.7963327655 3.1719932567
H -4.5524272381 4.6658120982 1.7386030687
H -1.9620188785 -3.5863676368 0.5134425915
H -1.7552288858 -3.0448124397 2.2105636281
H -3.3925554292 -3.3746187602 1.5725493060
H -4.0611355152 -0.3458741561 -1.2983199203
H -0.1715701123 2.6472712322 -1.9010807098
