50
CONF128
C 1.7277030064 1.0086118165 0.7228820834
C 2.4340688372 0.0341666372 -0.1937036768
C 1.7374712104 -0.4873312939 -1.2835485768
C 2.3205462623 -1.4885496873 -2.0852595457
C 3.5655892953 -1.9911571725 -1.8165637838
C 4.3163816224 -1.4801177864 -0.7365105358
C 3.7665553832 -0.4156434932 0.0497662857
C 4.6897790517 0.1073436271 1.0305404848
N 5.8578718623 -0.4610767527 1.2760156317
C 6.2019454330 -1.5355250521 0.5260949905
N 5.5272973321 -2.0408480854 -0.4916971791
N 7.4147751987 -2.0943115022 0.8290383731
N 4.4291522540 1.2256810641 1.7792819965
C 0.3303904765 -0.0545634422 -1.6066016252
N -0.6293031546 -0.8180641787 -0.8097533473
C -1.9058115755 -0.3336530098 -0.5557071421
C -2.6210671795 -0.8353939964 0.5424504274
C -3.9185554636 -0.3889791055 0.7831478411
C -4.5154830392 0.5717523665 -0.0467337406
C -3.7947832774 1.0534060293 -1.1439409798
C -2.4923790996 0.6154381369 -1.4020247738
O -4.4564115188 1.9623571450 -1.9154599336
C -3.7639992143 2.5057211503 -3.0321425527
O -5.7681324847 1.0573127864 0.2374399704
C -6.8154571678 0.3092266083 -0.3920861573
O -4.6964599153 -0.8193106354 1.8162607054
C -4.1356945771 -1.7785387850 2.7034049675
H 0.6447996852 0.9095718288 0.6397283736
H 1.9874493753 0.8319335621 1.7682569734
H 1.9612554055 2.0549034442 0.4798519321
H 1.7477782213 -1.8803660767 -2.9215664648
H 4.0058503650 -2.7858995877 -2.4079177163
H 7.5921582284 -3.0090418313 0.4503589869
H 3.8016943614 1.9187264986 1.4138771766
H 0.2051669389 1.0256275658 -1.4329464875
H 0.1473900160 -0.2216188913 -2.6776465084
H -0.2092297222 -1.3343305510 -0.0525176790
H -2.1540944775 -1.5727635940 1.1840920350
H -1.9524067751 0.9771901520 -2.2651333577
H -4.4548469144 3.2130386534 -3.4935147582
H -3.5007921161 1.7271463856 -3.7607235671
H -2.8549547893 3.0364098499 -2.7196495400
H -7.7553179693 0.7825829107 -0.0984934976
H -6.7138248084 0.3415247233 -1.4844912117
H -6.8076449339 -0.7337424944 -0.0500561033
H -4.9071893772 -1.9807983536 3.4479091185
H -3.8812911138 -2.7099337087 2.1800717726
H -3.2416698715 -1.3845041580 3.2046053558
H 5.2399020059 1.5802125932 2.2637666959
H 7.8022652305 -1.8750524004 1.7305574700
