110
CONF105
C -3.6843474788 -0.3114888950 1.3560186700
N -4.7302888334 0.0787162057 2.3264683381
C -4.4501213145 1.4737184465 2.7366872474
C -3.5815255981 2.0513317073 1.6026338143
C -3.5507663492 0.9588901827 0.5047118453
C -2.3067896955 1.0064389062 -0.3384250089
C -0.9838429798 0.8749424555 0.0407081980
C 0.0462799542 0.9751786530 -0.9004877990
C -0.3172330998 1.2406352914 -2.2407468330
O 0.7249083402 1.3175351047 -3.1142654256
C 0.4494233175 1.6446438341 -4.4818808796
C -1.6467043677 1.4041901361 -2.6383597686
C -2.6395346714 1.2600255226 -1.6664481523
N -4.0065936773 1.3216536558 -1.8507764027
C -4.5447853997 2.2678198330 -2.8224898186
C -4.7007968456 1.1415863853 -0.5611379637
C -5.7281613946 -0.0406054223 -0.5914107724
O -6.6171081887 0.0600827480 0.5152048746
C -5.0096143238 -1.3950371839 -0.5939436097
O -5.9671887166 -2.4491381575 -0.7137047151
C -4.0398241158 -1.6196070091 0.6274295741
C -2.7688951330 -2.3000562632 0.0382795370
C -1.6768385487 -2.6971765752 1.0286163208
C -4.6419210999 -2.5764362720 1.6334581933
C -4.9766159612 -2.2591423094 2.8837766602
C -4.8806790837 -0.8680588303 3.4233257081
C -6.5824927882 0.0535192285 -1.8766529778
N -7.7589276571 0.6887718648 -1.7148772167
O -6.1921509731 -0.3809678965 -2.9613882516
C 1.5226717343 0.7714826664 -0.5335687958
C 1.7313017993 0.8673323255 1.0138120626
C 3.2086295027 0.6792375326 1.3476361736
C 3.5345426771 -0.7119534277 1.9064450429
N 4.9533209601 -0.9961180088 1.7553333050
C 5.7736449417 0.0309761602 2.4019718788
C 5.4083336099 1.5115582683 2.1597647009
O 5.8613581965 1.8218259171 0.8197986771
C 6.1131637564 2.4258651790 3.1723633045
C 7.6378700366 2.3280790260 3.1847097684
C 3.8803739233 1.7129333581 2.2429627124
C 5.3209182241 -1.4799809510 0.4180221755
C 4.6870798721 -0.8672715353 -0.8739669917
C 3.2499032697 -1.2499569493 -1.1353869738
C 2.0189378907 -0.5955531166 -1.0259715873
N 1.0159425303 -1.5000836220 -1.3473391815
C 1.5422100495 -2.7139687348 -1.6818636261
C 0.9136284682 -3.8915866585 -2.0861286390
C 1.7271128919 -4.9804514866 -2.3730586010
C 3.1284978274 -4.8883128987 -2.2654621525
C 3.7453791364 -3.7107091999 -1.8640091178
C 2.9494761203 -2.5931369354 -1.5605249757
C 2.2864701488 1.9861628596 -1.1042309950
O 1.9868277879 3.1283337655 -0.8135872728
O 3.3192766108 1.6766594415 -1.8901984291
C 4.0679337339 2.8021077495 -2.4114410742
H -2.7302657283 -0.4600239570 1.8902678463
H -3.9081638715 1.4959885839 3.6929877444
H -5.3946454136 2.0127135090 2.8711945884
H -2.5597085740 2.2142354589 1.9574860944
H -3.9554501476 3.0013304417 1.2139381266
H -0.7516918900 0.6954811581 1.0839305692
H -0.1739162825 0.8746560501 -4.9505693531
H -0.0435892064 2.6202920763 -4.5593225206
H 1.4213714183 1.6815017168 -4.9748864203
H -1.9013974634 1.6105777358 -3.6694518049
H -5.6345861385 2.2569497575 -2.7849939389
H -4.1951841488 3.2929752221 -2.6214331987
H -4.2469828231 1.9853899298 -3.8367308370
H -5.2878980658 2.0404252192 -0.3248875733
H -6.0139569584 0.0752598746 1.3382494198
H -4.4200356063 -1.4385961354 -1.5142377104
H -6.5686789570 -2.3589502512 0.0404978240
H -3.1217127185 -3.1968525760 -0.4880035057
H -2.3509761168 -1.6349914271 -0.7268943493
H -0.9261023093 -3.3136608839 0.5233517475
H -2.0828449490 -3.2771775938 1.8637693093
H -1.1553528350 -1.8278281921 1.4408611319
H -4.7349786892 -3.6086802756 1.3041236414
H -5.3342810522 -3.0257666060 3.5665942115
H -4.0325372475 -0.7974629644 4.1333860412
H -5.7853600400 -0.6171481565 3.9932289061
H -8.3857218768 0.7822131366 -2.4990474329
H -8.0645865501 0.9505258102 -0.7908744693
H 1.1311077970 0.0905026181 1.4993427076
H 1.3526590170 1.8390843210 1.3471681708
H 3.7508237001 0.7608489338 0.4100002378
H 2.9567318418 -1.4901520671 1.3956894327
H 3.2638980644 -0.7421858824 2.9753877130
H 5.6986385255 -0.1260274460 3.4900946175
H 6.8204238011 -0.1262008270 2.1218169254
H 5.6156320521 2.7391650373 0.6372831793
H 5.8113638243 3.4577419314 2.9433675539
H 5.7161367993 2.2027310633 4.1705355773
H 7.9783512166 1.3508120701 3.5402150573
H 8.0623639274 3.0867583713 3.8493338450
H 8.0490273216 2.4879871186 2.1835186396
H 3.6435470970 2.7378899036 1.9236850633
H 3.5504206572 1.6077309261 3.2856103982
H 6.4091175584 -1.3869406172 0.3255987509
H 5.0899075332 -2.5556965239 0.3890325353
H 5.2783348142 -1.3005006410 -1.6936286601
H 4.8638183505 0.2050059994 -0.9180145429
H 0.0378184235 -1.2573867564 -1.3704734221
H -0.1673646047 -3.9512482120 -2.1722957229
H 1.2760134568 -5.9162438500 -2.6884082599
H 3.7355890214 -5.7569720409 -2.5020796793
H 4.8277465258 -3.6606582460 -1.7906267428
H 4.8828295207 2.3633029008 -2.9860960260
H 3.4258940955 3.4107377437 -3.0533240275
H 4.4567352844 3.4111024534 -1.5916717332
