37
CONF5
C 4.5232262249 -0.8025962915 0.7175176523
C 3.6384702141 0.3964636929 1.0573626019
C 2.1470735924 0.0622100573 1.1523461669
C 1.5617718218 -0.4430894603 -0.1641426232
C 0.0254663030 -0.6626865558 -0.1168100969
C -0.4289822598 -1.2168453268 -1.5068478755
N -1.8638725103 -1.3523849644 -1.6220935044
C -2.6842664693 -2.3116835926 -1.1247304049
N -3.9463568021 -1.9993895946 -1.3598968779
C -3.8419318206 -0.8068490009 -2.0110877830
N -2.6041051258 -0.3679173656 -2.1915872804
C -0.2387744549 -1.7094229356 0.8732517749
N -0.4156849535 -2.5765600136 1.6167169832
C -0.7523243262 0.6097911003 0.2121340136
C -1.7700631607 0.6188522639 1.1631358324
C -2.5152661707 1.7685250640 1.4037967011
C -2.2324109255 2.9184417060 0.6813405640
Cl -3.1603408115 4.3741642859 0.9758492387
C -1.2237994083 2.9358134306 -0.2752785552
C -0.4931086867 1.7790614034 -0.5050123141
H 4.3343216682 -1.1783151944 -0.2929894295
H 4.3507214918 -1.6268908165 1.4184280820
H 5.5824494566 -0.5348987197 0.7705333092
H 3.9562405518 0.8179642287 2.0179369681
H 3.7859491490 1.1894988207 0.3120235383
H 1.5941895450 0.9554392794 1.4659717101
H 1.9903348665 -0.6957205480 1.9308088735
H 2.0267178020 -1.3929686846 -0.4511756191
H 1.7762895666 0.2712032794 -0.9680635852
H -0.1070531410 -0.5174908638 -2.2820194640
H 0.0438873194 -2.1886038535 -1.6824171897
H -2.3177357775 -3.1925762864 -0.6140971440
H -4.6967107966 -0.2477300487 -2.3677901899
H -1.9959257474 -0.2802502662 1.7274057463
H -3.3068312185 1.7671727662 2.1436062696
H -1.0202510065 3.8396409539 -0.8370270595
H 0.2786852061 1.8006287654 -1.2670997440
