47
CONF5
C 4.0283694320 2.4701435226 -1.8299546861
C 4.3406504194 0.9668266435 -1.8505961900
C 3.7729524201 0.2578928305 -0.6681666829
N 4.5032087490 0.0043822268 0.4258797220
N 3.6731687081 -0.5529170935 1.3231116645
C 4.2257602403 -1.0854447873 2.5640516433
C 2.4123620695 -0.7132837734 0.8338925140
C 1.2924666796 -1.2611773416 1.6406129270
O 1.1842478880 -1.0139733865 2.8459905228
N 0.4251397481 -2.0268964418 0.9425639698
C -0.8405404134 -2.5109825612 1.4871561826
C -2.0204321126 -1.8941711147 0.7738807596
C -2.9587487215 -2.6822436453 0.1160137074
C -4.0440634769 -2.1031923118 -0.5445141441
C -4.2217225281 -0.7186209606 -0.5720070321
C -3.2673754773 0.0665732798 0.0956416912
C -2.1893387885 -0.5061767987 0.7541874590
C -5.3941599148 -0.0434371307 -1.2871415335
C -4.8506201014 0.9239137660 -2.3561843199
C -6.2253641438 0.7481897936 -0.2592926330
C -6.3160287934 -1.0546856548 -1.9785754397
C 2.4582415716 -0.1860444895 -0.4554867776
Cl 1.1446058505 -0.0189340167 -1.5748871990
H 4.4491685354 2.9605752487 -2.7125914376
H 2.9481558963 2.6445283450 -1.8237338886
H 4.4548338250 2.9384383003 -0.9378682806
H 3.9350242496 0.5181582508 -2.7640510788
H 5.4235419579 0.8094736076 -1.8609700277
H 4.4799993916 -2.1436228242 2.4424665202
H 3.4942764675 -0.9715127713 3.3627192329
H 5.1282167283 -0.5179891739 2.7935297189
H 0.5968273824 -2.1806220306 -0.0405749627
H -0.8483921305 -2.2517754748 2.5498841447
H -2.8458219037 -3.7634432216 0.1140674172
H -4.7494015910 -2.7559201454 -1.0454005548
H -3.3665512353 1.1476187042 0.1045640874
H -1.4653106599 0.1307620981 1.2566790328
H -5.6839631974 1.4043623333 -2.8803795479
H -4.2439360201 0.3853590352 -3.0919269163
H -4.2328761851 1.7099613309 -1.9123780664
H -7.0676514769 1.2392977314 -0.7590568421
H -6.6229291135 0.0801139319 0.5120839413
H -5.6260059380 1.5203830248 0.2317356232
H -7.1288992697 -0.5174113846 -2.4771404721
H -6.7646870984 -1.7506891523 -1.2620564894
H -5.7812699247 -1.6342605564 -2.7384043327
H -0.8806780651 -3.6025410187 1.4037276035
