63
CONF17
C 2.4329500212 -1.2751309752 -1.7389185142
C 1.2190621166 -1.6623606434 -2.5791152997
N 0.0611513520 -0.8361071388 -2.2225038442
C 0.3510653122 0.5712729927 -2.5238467200
C 1.5207993509 1.0763228865 -1.6862542342
C 2.7527202682 0.2071449082 -1.9391566819
N 3.8998898728 0.6386809623 -1.1413713935
C 4.0136631754 0.6858231246 0.2456616866
C 3.1486540314 0.3319226233 1.2741415936
C 3.5902032768 0.5153923835 2.5879462671
C 4.8566152620 1.0324126255 2.8667365029
C 5.7317714228 1.3866378119 1.8366387648
C 5.2923050436 1.2061862708 0.5356500664
N 5.9055286424 1.4551011609 -0.6782802127
C 5.0700088159 1.1181917436 -1.7275064093
O 5.3090219570 1.2194344871 -2.9292594816
C -1.1571150771 -1.2914207752 -2.9078574070
C -2.4240520335 -0.7821433063 -2.2208978985
C -2.6471802856 -1.4107123081 -0.8399697181
C -3.3929969883 -0.4651449548 0.1211750679
C -3.9440179422 -1.1498986048 1.3593467847
C -3.3903830622 -2.3195989652 1.8854511143
C -3.8973153259 -2.8986128286 3.0487165706
C -4.9676445751 -2.2860094813 3.6733300141
C -5.5517753159 -1.1277748064 3.1873756274
C -5.0277353716 -0.5682696260 2.0270424274
F -5.4711213215 -2.8435654375 4.8081983203
C -2.4923849549 0.6992263545 0.5090278557
C -2.7089934088 1.9792364430 -0.0042018728
C -1.8505795813 3.0363995739 0.2983408116
C -0.7759643637 2.7846997605 1.1306774011
C -0.5295218615 1.5348918442 1.6753774905
C -1.3954576174 0.4954751442 1.3534354485
F 0.0734759301 3.8045413699 1.4314816502
H 3.2974950029 -1.8822329499 -2.0291400765
H 2.2149940419 -1.4798978459 -0.6852133579
H 0.9690760631 -2.7135946130 -2.3978266822
H 1.4674699585 -1.5629360679 -3.6564338184
H 0.5829670912 0.6999334817 -3.6017182084
H -0.5310900201 1.1812188041 -2.3059690158
H 1.2399110358 1.0491223947 -0.6280983903
H 1.7420345649 2.1175203908 -1.9465170852
H 3.0656391886 0.3514763475 -2.9806527027
H 2.1630778370 -0.0728001058 1.0816721097
H 2.9288246593 0.2462948246 3.4051236745
H 5.1696959933 1.1617868347 3.8975009315
H 6.7182221194 1.7883413794 2.0426658971
H 6.8294459472 1.8331872377 -0.8154080333
H -1.1612291313 -2.3890922608 -2.8926708344
H -1.1531515028 -0.9851527606 -3.9716479646
H -2.3718092950 0.3083769406 -2.1303601229
H -3.2855976454 -0.9893668703 -2.8664996528
H -3.2154804370 -2.3429543584 -0.9438383479
H -1.6762532687 -1.6699743551 -0.4018518197
H -4.2501176759 -0.0443867612 -0.4204996478
H -2.5522024185 -2.7990738816 1.3909722915
H -3.4714879347 -3.8073434273 3.4605967639
H -6.3948656358 -0.6824175283 3.7046254298
H -5.4708785059 0.3420620926 1.6316379872
H -3.5583330444 2.1584443831 -0.6573885052
H -2.0111860929 4.0314456308 -0.1025522105
H 0.3218782902 1.3847094653 2.3307457386
H -1.2116925258 -0.4899035736 1.7721347900
