65
CONF148
C 5.7617400940 -0.0131493714 2.7342799520
O 5.3494681729 0.6490776198 1.5334151888
C 4.8478849353 -0.1287306505 0.5285324677
C 4.4472135969 0.5541221554 -0.6271570259
C 3.9206508845 -0.1484807495 -1.6987614601
C 3.7676665564 -1.5409115357 -1.6544875516
C 4.1882745639 -2.2042361249 -0.5042576134
C 4.7245096745 -1.5179202481 0.5875601025
C 3.1048206466 -2.2723537746 -2.7903258492
C 1.5942512443 -2.0160469348 -2.9285579685
N 0.7943105591 -2.5265441988 -1.8048108834
C -0.5576708422 -2.8830705830 -2.2588482571
C -1.3799674217 -3.4883207975 -1.1229858412
C -1.4653161043 -2.5652643914 0.0927700286
C -0.0536558999 -2.1060747887 0.4794092406
C 0.6926789619 -1.5343749825 -0.7201518270
N -2.3473420829 -1.4247234090 -0.2168068580
C -2.7542769934 -0.5993886536 0.7879528512
N -2.8153568495 -0.9180014257 2.0719468478
C -3.3325593238 0.2106586824 2.6896115093
C -3.6057396574 0.4457922371 4.0358494206
C -4.1148734141 1.6938890645 4.3961469475
C -4.3483798641 2.6909273504 3.4404333462
C -4.0850136999 2.4731474245 2.0854896970
C -3.5838518236 1.2274261958 1.7372478475
N -3.2192117079 0.6768990478 0.5156009662
C -3.1247675850 1.3611772195 -0.7625348652
C -1.6959545513 1.6824494847 -1.1563293831
C -0.7454813960 2.0276754743 -0.1927053836
C 0.5561194945 2.3542299831 -0.5607583358
C 0.8827779683 2.3292079858 -1.9063156798
C -0.0254555017 1.9791035012 -2.8901240220
C -1.3223116376 1.6531870645 -2.5007033395
F 2.1468352881 2.6596139724 -2.2755501431
H 6.5756903426 -0.7207866137 2.5355805730
H 4.9216321103 -0.5402722199 3.2022995340
H 6.1165360972 0.7739868789 3.4003300713
H 4.5572635250 1.6334708585 -0.6659767923
H 3.6055655501 0.3964845426 -2.5846018397
H 4.0803201366 -3.2841098474 -0.4423402660
H 5.0339945675 -2.0738186044 1.4642748947
H 3.5670529197 -1.9688740794 -3.7387915877
H 3.2649435687 -3.3503290208 -2.6800690656
H 1.2616426545 -2.5275949748 -3.8394909449
H 1.4110792581 -0.9353093692 -3.0856054314
H -0.4742497988 -3.6165931911 -3.0687291630
H -1.0783062208 -1.9994373958 -2.6888990864
H -2.3845281337 -3.7360584025 -1.4827463015
H -0.8995370427 -4.4199315111 -0.8033731515
H -1.9256636822 -3.1003707072 0.9281893588
H -0.1106316309 -1.3531334922 1.2731687075
H 0.5010743736 -2.9659056551 0.8749582036
H 0.1832080594 -0.6182863038 -1.0842543089
H 1.6957436145 -1.2315093310 -0.4137240884
H -2.1422301151 -0.9606736415 -1.0911881603
H -3.4220915507 -0.3236745699 4.7794690487
H -4.3328866758 1.8983848624 5.4398034626
H -4.2659840689 3.2506451821 1.3500210812
H -3.6035100159 0.7560733193 -1.5416206226
H -3.7114318939 2.2826335205 -0.6837806827
H -1.0168598454 2.0398155744 0.8588877136
H 1.3041882073 2.6238839321 0.1768951919
H 0.2779273475 1.9584097552 -3.9310963552
H -2.0488110611 1.3700435195 -3.2573488122
H -4.7407579459 3.6527055958 3.7547741954
