29
CONF7
C -3.6253111950 -2.1732362472 0.1847834507
C -3.2483675333 -1.0043909748 0.8440802068
C -2.4615513398 -0.0604241356 0.1958171868
C -2.0366880606 -0.2735892499 -1.1181942224
C -2.4116576246 -1.4482452738 -1.7677877469
C -3.2068015244 -2.3930773000 -1.1229458141
C -1.1801280652 0.7648689818 -1.8038339493
O -0.0642236294 1.1736856606 -1.0163147563
C 0.9067685329 0.1315798176 -0.8708733117
C 1.9497682137 0.5866704209 0.1062499586
C 3.2733925884 0.7784294746 -0.2845375757
C 4.2301572525 1.1973031342 0.6369137371
C 3.8660529252 1.4366401740 1.9574176493
C 2.5426049775 1.2531135088 2.3544467023
C 1.5922826063 0.8288763256 1.4346469552
H -4.2404350066 -2.9098850913 0.6914605569
H -3.5730272198 -0.8290011815 1.8650245730
H -2.1605199362 0.8503054453 0.7054728654
H -2.0757567815 -1.6271444487 -2.7860752973
H -3.4912599051 -3.3043325155 -1.6396257446
H -1.7576408345 1.6806699149 -1.9730821801
H -0.8470589159 0.3879986643 -2.7850305657
H 1.3634174431 -0.0950482901 -1.8480671927
H 0.4168193059 -0.7847216952 -0.5038298092
H 3.5574409077 0.6012239688 -1.3182064935
H 5.2583422902 1.3420945529 0.3206496382
H 4.6093003349 1.7659097791 2.6764741333
H 2.2545347905 1.4387582285 3.3844324407
H 0.5595460116 0.6849679547 1.7388345030
