43
CONF5
C 2.0343860553 2.2428402741 -0.8715921744
C 0.6437075762 2.6887011461 -0.5694747982
N 0.4456902591 3.8957015900 -0.0665816630
N -0.9094600603 4.0282957832 0.0518004116
C -1.5664530873 2.9482046035 -0.3983614484
C -0.5990322055 2.0203868697 -0.8312544468
C -0.7978055198 0.7530688685 -1.4988812579
O -1.7965750141 0.4583031741 -2.1561085001
C 0.2645530755 -0.2900684499 -1.2927568816
C 0.8966980003 -0.9677687970 -2.3356146358
C 1.7892107717 -2.0057804614 -2.0942911450
C 2.0269452135 -2.3814016268 -0.7775352473
C 1.4156364652 -1.7340855141 0.2897547732
C 0.5503570496 -0.6837380108 0.0172762355
Cl 3.1361996036 -3.6979817169 -0.4642975900
Cl 0.6407656860 -0.4773449788 -3.9934008433
O -2.9049430612 2.9434665006 -0.3214234821
C -3.5382493861 1.6743972117 -0.1361205373
C -3.0176789074 0.9570243933 1.1069444710
O -2.3903055543 1.5688881358 1.9531145763
C -3.3415395910 -0.4851976955 1.2621611499
C -3.6394561152 -1.3189048596 0.1763079542
C -3.8954484062 -2.6690620387 0.3883858131
C -3.8705581458 -3.1926532760 1.6770039043
C -3.5750635273 -2.3673223167 2.7619130944
C -3.3036298840 -1.0242183413 2.5557237870
C -1.4647979581 5.1747658122 0.7413943010
H 2.3428757539 1.4164162869 -0.2240202094
H 2.1257651464 1.8971331281 -1.9060362549
H 2.7148132117 3.0825350940 -0.7176604141
H 2.2886542190 -2.5058990418 -2.9143264664
H 1.6182551247 -2.0415980589 1.3083730081
H 0.0703938172 -0.1522191222 0.8345799866
H -3.4280070604 1.0734312584 -1.0415873074
H -3.6256109355 -0.9381256156 -0.8381922263
H -4.1058728084 -3.3146325257 -0.4576852899
H -4.0747509898 -4.2464596173 1.8375717806
H -3.5548756044 -2.7768045770 3.7666345715
H -3.0610600349 -0.3661127378 3.3831661196
H -2.5460746892 5.1779482639 0.6046822533
H -1.2315701808 5.1168029291 1.8093221280
H -1.0326374705 6.0873501502 0.3242257023
H -4.5999267088 1.8963883725 0.0201978742
