33
CONF4
C -3.7034703547 -1.2880670666 -1.1337148808
C -2.9932611205 -0.2461451106 -1.9972467315
C -3.6204918761 1.1271732755 -1.8366680850
O -3.2274436582 1.9641518926 -2.8189991938
O -4.3664877550 1.4619101700 -0.9407376361
C -1.5104388887 -0.1471395018 -1.6757325835
C -0.5484144883 -0.5025976613 -2.6251127598
C 0.8082716862 -0.4363403445 -2.3190157050
C 1.2218334427 -0.0276637196 -1.0564539715
C 0.2686055318 0.3405199610 -0.0992290215
C -1.0910683640 0.2879758324 -0.4210018994
C 0.6613002111 0.8692852426 1.2378952859
O -0.0336702702 1.7163912882 1.7958066479
C 1.9005797611 0.3646607535 1.8896125041
C 2.3409596104 -0.9535987296 1.7162598665
C 3.4608869451 -1.4107204688 2.4032045321
C 4.1618697951 -0.5510670309 3.2459712090
C 3.7307947792 0.7649360212 3.4189605116
C 2.5979856943 1.2167178567 2.7559817373
H -3.2434188208 -2.2669028333 -1.2914745245
H -4.7623936858 -1.3493555119 -1.3991579139
H -3.6279550783 -1.0337302494 -0.0735695936
H -3.0871576505 -0.5138217632 -3.0553517329
H -3.6281128873 2.8359522850 -2.6585967963
H -0.8653083716 -0.8326958420 -3.6102652841
H 1.5449574893 -0.7050754894 -3.0692052965
H 2.2795920653 0.0338803872 -0.8242572948
H -1.8172439929 0.5847900543 0.3303327665
H 1.7917340255 -1.6287580489 1.0684080793
H 3.7871807108 -2.4383740822 2.2797091234
H 5.0428539741 -0.9062981097 3.7714364029
H 4.2791246646 1.4349796172 4.0735011476
H 2.2478070668 2.2350270320 2.8894326152
