45
CONF49
C 5.7723501261 -3.4816920248 -2.1270892273
C 5.1483986762 -2.2952375535 -2.1982378452
C 3.7134165418 -2.0777763433 -2.1036041589
C 3.1853740263 -0.8223040977 -2.1928405124
N 1.8432881810 -0.5832326513 -1.9376151593
C 0.8637468288 -1.5370839043 -1.4226206075
C -0.2598631812 -0.6231333501 -2.0034077891
C 0.9005866354 0.3087244555 -2.4418433557
O 0.9980248674 1.3437036956 -3.0520857995
N -1.2820400973 -0.1067217156 -1.1505633977
C -0.9852263612 0.7078783331 -0.1087804972
O 0.1615503352 1.0714267049 0.1426588428
C -2.1596347049 1.1445562369 0.7335675047
N -3.2292538201 0.4323523490 0.5885282870
O -4.3265126517 0.9781238203 1.2500596635
C -5.2310884799 -0.0491003536 1.6513363260
C -4.9267869059 -0.5884778373 3.0443898544
O -5.5357634989 -1.5499770787 3.4704523747
O -4.0145620821 0.0406411742 3.7746192894
C -1.9781761976 2.2504483031 1.6699876914
C -1.1956423238 3.3444924720 1.4432219537
S -1.2322850339 4.4045496940 2.8175639709
C -2.2999819957 3.2490008566 3.6353751943
N -2.5945391856 2.1993105111 2.9112365680
N -2.7905280788 3.4972145178 4.8716376502
S 1.0835701565 -3.1587553594 -2.2319730237
C 2.8619066074 -3.2813876870 -1.7823606133
C 3.9945055841 0.3932487567 -2.5111723298
O 4.8180309243 0.4655972758 -3.3984456852
O 3.6994605405 1.4037548460 -1.6740591191
H 5.2536591496 -4.4275915365 -2.0135307621
H 6.8546950683 -3.5242056302 -2.1835825774
H 5.7610396370 -1.4071857016 -2.3140149644
H 0.8857688695 -1.6268900002 -0.3325574258
H -0.7249049285 -1.0707548556 -2.8869368876
H -2.2451169144 -0.3632307308 -1.3149385360
H -6.2264006405 0.4065283955 1.6778723706
H -5.2315591799 -0.8787983389 0.9372942314
H -3.5829504778 0.8472080875 3.3372650327
H -0.6086874668 3.5818957426 0.5684636071
H -3.2227381696 2.7192160110 5.3493463409
H -2.3040220887 4.1541678089 5.4613917658
H 2.9502380234 -3.5303645592 -0.7178832190
H 3.2255515274 -4.1436520458 -2.3472486589
H 4.2131036511 2.1835138998 -1.9480156799
