110
CONF104
C -3.0544122033 -0.1095885143 -1.0712687832
N -3.9389609030 -0.5634146948 -2.1669064739
C -3.3685977252 -1.8226274559 -2.6930518429
C -2.5188499595 -2.3850517036 -1.5369612959
C -2.7456646004 -1.4261214546 -0.3400784654
C -1.5607985825 -1.3445377458 0.5832424465
C -0.2572681311 -0.9735265109 0.3114758182
C 0.7195550741 -0.9854819522 1.3126839545
C 0.3190838852 -1.3726513128 2.6100443633
O 1.2852696489 -1.3056692540 3.5760102761
C 0.9913483319 -1.8086577084 4.8850088633
C -0.9838793741 -1.7898317010 2.8946317455
C -1.9231616220 -1.7544321526 1.8632883257
N -3.2678883784 -2.0657792595 1.9449971744
C -3.6764632877 -3.1746154667 2.8012256811
C -3.9012633522 -1.9141964587 0.6212752895
C -5.1366029457 -0.9548201011 0.6576087496
O -5.9052407434 -1.1027740365 -0.5307145480
C -4.6920918254 0.4996639885 0.8494932788
O -5.8385771186 1.3425761436 0.9749988583
C -3.6957449530 1.0265675727 -0.2522338919
C -2.6128661199 1.8449952007 0.5102020721
C -1.5851307620 2.5827988195 -0.3424892991
C -4.3921829292 1.9702397495 -1.2073944131
C -4.5760566607 1.7437867862 -2.5072952957
C -4.1866384237 0.4621078550 -3.1716197269
C -6.0519274091 -1.3365746795 1.8448366351
N -7.0728061150 -2.1544981730 1.5159224130
O -5.8314409168 -0.9612830938 2.9955196846
C 2.1497768165 -0.4896277708 1.0212971380
C 2.5539309178 -0.8426500858 -0.4448592966
C 4.0533285609 -0.7828902046 -0.7941279866
C 4.6528270880 0.6252583187 -0.8011956098
N 4.1885657888 1.4702388276 -1.9232157252
C 3.6540723322 0.7537521521 -3.0839231364
C 4.4918463968 -0.4920274714 -3.3482852765
O 5.8786296657 -0.0997644090 -3.4900520097
C 4.0911854585 -1.2060341177 -4.6444023918
C 4.2640846477 -0.3902452052 -5.9232427170
C 4.3324010412 -1.4655413604 -2.1571939166
C 3.3950351312 2.6396282954 -1.5620615620
C 2.0116772312 2.3782085324 -0.9154565542
C 2.0475177444 2.1402399382 0.5656886494
C 2.1619122848 0.9941600393 1.3409501345
N 2.1333664166 1.3587404464 2.6785207797
C 2.0295291427 2.7154146379 2.8015165094
C 1.9779957073 3.5223663193 3.9376503092
C 1.8645721617 4.8934088643 3.7414767999
C 1.8056204205 5.4418031013 2.4462719906
C 1.8605638264 4.6319338257 1.3192520416
C 1.9753919414 3.2435068598 1.4855139650
C 3.1841145557 -1.2478803088 1.8764672692
O 4.0871046813 -0.7464699507 2.5120750577
O 3.0297245604 -2.5733247570 1.7244554206
C 3.9745077803 -3.3938181554 2.4505646698
H -2.1082255540 0.2627893691 -1.5002119126
H -2.7422608974 -1.6251722545 -3.5754691635
H -4.1790879185 -2.4936803216 -2.9988572853
H -1.4588721165 -2.3622011139 -1.8051962609
H -2.7732061381 -3.4152870385 -1.2777054759
H 0.0075000872 -0.6704390580 -0.6963267468
H 0.1978412177 -1.2223501144 5.3619781243
H 0.7002750536 -2.8640927562 4.8398810442
H 1.9170093852 -1.7038279292 5.4519977929
H -1.2667982697 -2.0997141494 3.8918130313
H -4.7441758455 -3.3605201778 2.6825993417
H -3.1263107276 -4.0971061314 2.5549524342
H -3.5024878487 -2.9292083792 3.8532822566
H -4.2841131716 -2.8851756964 0.2756514446
H -5.2570292600 -0.9128640568 -1.2943041293
H -4.1892729125 0.5473479443 1.8197085120
H -6.3608044410 1.2128209198 0.1694767678
H -3.1560485369 2.5710795339 1.1291850516
H -2.0986448751 1.1668752768 1.2012235507
H -2.0638449753 3.2669801218 -1.0503128834
H -0.9510110614 1.8959185233 -0.9105715755
H -0.9210579963 3.1687147665 0.3014879257
H -4.6979755887 2.9245094739 -0.7854215105
H -5.0218381920 2.5076972141 -3.1393923548
H -3.2920007210 0.6227855800 -3.8059856019
H -4.9870634403 0.1215902276 -3.8422516817
H -7.7390631548 -2.4199002925 2.2243094984
H -7.2693771217 -2.3405098109 0.5451394548
H 1.9850256949 -0.2189807703 -1.1304643582
H 2.2160923319 -1.8704521393 -0.6058388956
H 4.6017592002 -1.3516486873 -0.0337714720
H 5.7467510083 0.5101505505 -0.8584088916
H 4.4425776819 1.1391942962 0.1397369170
H 2.6012172358 0.4321560515 -2.9790534813
H 3.6926903874 1.4344740622 -3.9443660960
H 5.9672846533 0.7588731693 -3.0509351764
H 4.6969610252 -2.1200122599 -4.7056636976
H 3.0483771583 -1.5298406507 -4.5435602410
H 3.5778685575 0.4614838078 -5.9599011703
H 4.0602657302 -1.0136705664 -6.7992949255
H 5.2851320388 -0.0085613011 -6.0077615209
H 5.2526122124 -2.0559975748 -2.0996799018
H 3.5190566101 -2.1649805807 -2.3827726214
H 3.9836509841 3.2691892879 -0.8814237157
H 3.2410736525 3.2178312644 -2.4830876894
H 1.4878309348 1.5875891484 -1.4582861762
H 1.4057880761 3.2780797219 -1.0783437672
H 2.2069740412 0.7018765193 3.4392791127
H 2.0223423590 3.0952009822 4.9348979520
H 1.8201499029 5.5531701655 4.6024868178
H 1.7169062805 6.5176321413 2.3299193960
H 1.8175364811 5.0722445801 0.3269882546
H 3.7036883335 -4.4227221459 2.2168800541
H 4.9945106168 -3.1791211592 2.1220001589
H 3.8837979619 -3.2052056362 3.5236097171
