58
CONF7
C 2.5729791885 1.2896406550 3.0667715816
C 3.0584335565 0.6222212645 1.7795043504
C 3.8130186290 1.6223241029 0.9024075517
C 3.9430735167 -0.6015656147 2.0551825479
C 3.3046155537 -1.7016653242 2.9118597177
C 1.9640213303 -2.2293432252 2.3924837832
C 2.0217482174 -2.7898826347 0.9711792214
C 0.7090953951 -3.4632370240 0.5710949399
C 0.6795542989 -4.0033916756 -0.8607010455
C 0.8952398008 -2.9514360902 -1.9306530761
O -0.1312238675 -1.9129988368 -1.8055950361
P 0.2570684282 -0.3912974622 -1.5537243939
O 1.6447665192 -0.0015403151 -1.8618470815
O -0.2318560821 -0.2138355580 -0.0165338319
C -0.4239997954 1.0368505845 0.5693132552
C -1.3441402564 1.0799731013 1.6091865225
C -1.5875096441 2.2907093288 2.2457469718
C -0.9206779438 3.4449836434 1.8426887278
C 0.0012156313 3.3790118621 0.8028563816
C 0.2638822110 2.1730641728 0.1587193968
O -0.8214600463 0.4522937748 -2.4025909155
C -2.1538400736 0.6258507379 -2.0123968446
C -2.6197597746 1.9324772863 -1.9549137226
C -3.9406194824 2.1610719538 -1.5879690790
C -4.7798485792 1.0933858696 -1.2804809967
C -4.2947013012 -0.2088232548 -1.3508663685
C -2.9756413859 -0.4551364117 -1.7223494605
H 1.9595344101 0.6155867469 3.6725460110
H 3.4243329415 1.6132473865 3.6790945506
H 1.9647574132 2.1716059670 2.8393370015
H 2.1778373750 0.2864997591 1.2161684192
H 4.0880569217 1.1756058223 -0.0583318551
H 4.7298291047 1.9580733648 1.4025779305
H 3.2010715759 2.5071847286 0.6987455237
H 4.2577187326 -1.0237314290 1.0916399381
H 4.8633686388 -0.2624453555 2.5520819537
H 3.1678035519 -1.3354721428 3.9367734880
H 4.0107594690 -2.5399807710 2.9825569138
H 1.6084537792 -3.0149799060 3.0730282138
H 1.2076116729 -1.4331329156 2.4256824765
H 2.2559558415 -1.9745384173 0.2753081754
H 2.8469820870 -3.5129165675 0.8910662882
H -0.1156142303 -2.7523148441 0.7021549023
H 0.5102538194 -4.2951765128 1.2584625528
H 1.4653807905 -4.7596529952 -0.9965996237
H -0.2776018861 -4.5063817477 -1.0440157807
H 0.7737623643 -3.3735051391 -2.9325407432
H 1.8816170577 -2.4836326172 -1.8670026541
H -1.8635478397 0.1715978460 1.8932737909
H -2.3075820441 2.3312785850 3.0563997721
H -1.1151647822 4.3890307435 2.3399895448
H 0.5335923946 4.2713418534 0.4891809870
H 0.9967495411 2.1143631472 -0.6389210649
H -1.9412153273 2.7472325997 -2.1803912688
H -4.3106872332 3.1796113425 -1.5346856756
H -5.8088282042 1.2759218514 -0.9898814420
H -4.9456004800 -1.0456428171 -1.1189288259
H -2.5872687808 -1.4649117738 -1.7821150039
