29
CONF24
C 2.6245721948 0.5676211342 -1.5945139051
C 2.7161605082 -0.2493508498 -0.3364976559
C 1.6675462278 -0.8020349060 0.2905833848
C 0.2209485241 -0.7171231200 -0.0972421973
C -0.5355626315 0.2911049121 0.7787780950
C -2.0318688696 0.4432450434 0.4335863772
C -2.6638157212 1.4994785768 1.3519282717
C -2.7474916274 -0.8650037658 0.6211400862
C -3.4345693265 -1.5269093852 -0.3059048156
O -2.1874704072 0.8427308727 -0.9397671396
C 4.1137661659 -0.4051947008 0.1982284095
H 3.0603170906 1.5608962481 -1.4279108821
H 1.6015056628 0.7002252388 -1.9500264550
H 3.2127361401 0.1024131126 -2.3959101929
H 1.8683893504 -1.3520255811 1.2116878035
H -0.2437528874 -1.7044456688 0.0212449241
H 0.1024854754 -0.4390730626 -1.1479172221
H -0.0655430182 1.2796190155 0.6804105448
H -0.4482583011 0.0049775742 1.8347046436
H -3.7175115908 1.6386461217 1.0932701383
H -2.1389125524 2.4544006481 1.2361615973
H -2.5963404350 1.1940486267 2.4005941298
H -2.6754495951 -1.2627944265 1.6332156427
H -3.5201878718 -1.1548051691 -1.3216974282
H -3.9287183217 -2.4641561840 -0.0684131136
H -1.7083628882 1.6745298708 -1.0481404932
H 4.7645335605 -0.8748803237 -0.5505746024
H 4.1365242875 -1.0112776127 1.1078721866
H 4.5543293650 0.5751377548 0.4212121496
