60
CONF13
C 0.8117387764 -1.0282260837 1.0290682903
C -0.5164287341 -1.7711973098 1.1707851364
C -1.7845697796 -0.9137537146 0.8995498698
C -1.5180732265 0.5648640760 0.9157204153
C -0.3683125774 1.1119594057 1.4265701338
O -0.1714555664 2.4128065773 1.5745684951
C 0.7683046874 0.2258991688 1.8998465371
O 0.4965275130 -0.1511906002 3.2431923220
C 2.1064116146 0.9821460431 1.8713495804
O 2.4657844676 1.5297780924 2.9188880422
C 2.8614329250 0.9741624491 0.6480006662
C 4.1022343492 1.7448392246 0.4887715869
O 4.7505993742 1.6912739507 -0.6024818579
N 4.5477623868 2.5056543841 1.4945227784
C 5.8019210716 3.2390338694 1.3589852382
O 6.9360926939 2.4010672401 1.3113103093
C 2.4509556744 0.1893277589 -0.4340004998
O 3.1438240278 0.1601313571 -1.5331816866
C 1.1826040865 -0.6469770353 -0.4231172029
N 1.1760777008 -1.8095519800 -1.3097189132
C 1.1112135024 -1.5083841838 -2.7497783637
C 2.1937530718 -2.8196990458 -1.0213302406
C -2.5738256054 1.4364071009 0.5044059403
O -2.5005294081 2.6924176306 0.7348115351
C -3.7146384632 0.8975096936 -0.2273987744
C -4.7843430682 1.7799522933 -0.5484895116
O -4.8398479380 3.0423110883 -0.1111652021
C -5.8304063487 1.3370531177 -1.3586109411
C -5.7642143582 0.0830430276 -1.9187564146
C -4.6940690474 -0.7750769767 -1.6425447134
Cl -4.7071608394 -2.2704063349 -2.5694509703
C -3.6879111258 -0.4302640096 -0.7431297163
C -2.5483661696 -1.3912887010 -0.3673974027
C -3.0819122377 -2.8106848102 -0.0361633346
O -1.6923041749 -1.3847128602 -1.5113248522
H 1.6072806785 -1.6594919089 1.4433968670
H -0.4911007655 -2.6530069186 0.5250421939
H -0.5572272524 -2.1443073228 2.1964116481
H -2.4816680344 -1.1013361962 1.7300111631
H -1.0478780025 2.8386721674 1.3007231475
H 0.9725069948 0.5019034935 3.7870122013
H 4.0514436584 2.4268430384 2.3783725547
H 5.7368642884 3.8693375246 0.4626052158
H 5.9098538181 3.8706310124 2.2431775820
H 6.9161765601 1.9528297295 0.4557907257
H 3.9652370385 0.8224039745 -1.3448096261
H 0.3894795853 0.0213391891 -0.7979722010
H 0.4163960614 -0.6818430908 -2.9206705480
H 2.0849155608 -1.2487081647 -3.1829277290
H 0.7177916240 -2.3892120638 -3.2706948728
H 3.2210223731 -2.4651668788 -1.2070749066
H 2.0144832872 -3.6866634867 -1.6648249478
H 2.1208609478 -3.1598129914 0.0156242981
H -3.9632822443 3.2202379594 0.3243547243
H -6.6495422497 2.0133059193 -1.5739376801
H -6.5391823180 -0.2510794858 -2.5991799218
H -3.0652315792 -3.4474989331 -0.9176700933
H -2.4696377865 -3.2816513473 0.7360169249
H -4.1075478219 -2.7683144066 0.3400114528
H -0.8808834019 -1.8896342396 -1.3091671378
