54
CONF423
C 3.6960357089 -0.3306189432 -2.8571726304
C 5.1619684242 0.0605122041 -2.6779949202
C 5.2833792820 1.4873949095 -2.2119875947
C 4.1850042357 2.1416414093 -1.6439159534
C 4.2764502610 3.4710086837 -1.2301632115
C 5.4688004401 4.1670124915 -1.3687958555
C 6.5552275378 3.5075915081 -1.9220126611
C 6.4807239057 2.1942213923 -2.3438636737
F 7.7270777010 4.1741260217 -2.0596794968
O 2.9618481884 1.5389717807 -1.4776221697
C 2.9041679215 0.1019787836 -1.6341053158
C 1.4079774543 -0.2020407013 -1.6737617281
C 1.0986015281 -1.6949256017 -1.7570955378
N -0.3250312369 -2.0218876263 -1.7042828922
C -0.9986932735 -1.6413351895 -0.4547864890
C -2.2976918400 -2.4424838802 -0.3474431345
C -2.9630248732 -2.2850201279 1.0131435649
C -4.2538956334 -3.0738269349 1.1445046296
C -4.8188990936 -2.8780971382 2.5487577142
C -4.8053641587 -1.4196929611 2.9295065111
C -4.0122261177 -0.5085287355 2.2207746197
O -3.2102454135 -0.8743571841 1.1702926700
C -4.0182888927 0.8490177287 2.5454312318
C -4.8059217944 1.3190506663 3.5866568839
C -5.5770176730 0.4077341144 4.2906849267
C -5.5913490509 -0.9377282787 3.9788655033
F -6.3486141227 0.8521797620 5.3139798458
O -2.0283755463 -3.8279901412 -0.5166264621
O 0.7810632993 0.4080004457 -2.8017919226
H 3.6090064427 -1.4129208114 -2.9918722936
H 3.2674025587 0.1502798063 -3.7427590133
H 5.6354587518 -0.6064528467 -1.9444633049
H 5.7118506734 -0.0691576366 -3.6161775532
H 3.4024736132 3.9452257386 -0.7972186714
H 5.5626141044 5.1994046292 -1.0525814861
H 7.3536868275 1.7219187276 -2.7835261334
H 3.3346839843 -0.3565615379 -0.7275611072
H 0.9814341227 0.2043632616 -0.7415807829
H 1.4943521329 -2.0863733197 -2.7018657081
H 1.6111721229 -2.2175483459 -0.9384653820
H -0.7833230386 -1.5589584742 -2.4839399155
H -1.2172092432 -0.5675599269 -0.3679691075
H -0.3471694258 -1.9248594531 0.3837593527
H -3.0059451044 -2.0873529280 -1.1196528781
H -2.2520586650 -2.6057754463 1.7936301353
H -4.0537250317 -4.1276305360 0.9374880857
H -4.2208732042 -3.4519957321 3.2697076072
H -3.3963356817 1.5252069426 1.9690374220
H -4.8239470302 2.3689943457 3.8550298984
H -6.2225630945 -1.6132889692 4.5479285665
H -1.3197500052 -3.8529925395 -1.1818085300
H -4.9619466780 -2.7084767616 0.3897958124
H -5.8410598446 -3.2662263717 2.6135734154
H 0.9647939974 1.3544385801 -2.7500405851
