51
CONF107
C -4.2268340890 3.8500542432 -1.1591724659
C -4.2206068999 2.3865742006 -0.8152124285
C -3.0902743613 1.7814891393 -0.4130564145
C -2.9672232509 0.3727113104 0.0034893937
C -2.0209781454 -0.6313193008 -0.6933137951
C -1.7760727026 -0.1616277553 0.7465849498
C -0.5927386182 0.7231271409 1.0622944759
C -2.0354757910 -1.2102016297 1.8071652313
C -1.1146765291 -0.2312326584 -1.7771656508
O -0.7128652268 0.8899369488 -2.0298241439
O -0.7389192476 -1.3291225897 -2.4925647212
C 0.3693230824 -1.1320684596 -3.4269854275
C 1.6508162741 -1.0674139697 -2.6754199338
C 2.2037359975 -2.0961085576 -1.8397546810
C 3.3403038654 -1.5906778309 -1.2910469845
O 3.5366638052 -0.3056846856 -1.7422996604
C 2.4954667187 -0.0065496437 -2.5770218486
C 4.3026288819 -2.0916442282 -0.2764071929
C 4.1242790144 -1.3880395427 1.0575488493
C 5.1218033521 -0.5597699483 1.5725512094
C 4.9379988050 0.1007423214 2.7872673180
C 3.7521768653 -0.0608018122 3.4986935540
C 2.7502681192 -0.8875049786 2.9897748533
C 2.9356477523 -1.5437160210 1.7771149763
C -5.5508630075 1.7077957271 -0.9732776400
H -3.2397781188 4.3024423768 -1.0322504542
H -4.9428599275 4.3927437734 -0.5284730533
H -4.5503108750 4.0017059294 -2.1970700236
H -2.1892760292 2.3855763732 -0.3676022962
H -3.9028081738 -0.1096835066 0.2722070997
H -2.3955885186 -1.6454396229 -0.7843861102
H -0.7855906751 1.2726887618 1.9906481772
H 0.2986261433 0.1044496715 1.2186793334
H -0.3709966441 1.4413419404 0.2733876351
H -1.1603199750 -1.8594676612 1.9254929460
H -2.2315703558 -0.7257827462 2.7706256077
H -2.8976514643 -1.8333360447 1.5533091590
H 0.2036652559 -0.2282056269 -4.0173570526
H 0.3212325007 -2.0103479461 -4.0741383486
H 1.7944225045 -3.0800589843 -1.6603304566
H 2.4994920603 0.9807933109 -3.0131627048
H 5.3313008517 -1.9580879695 -0.6287586419
H 4.1284796170 -3.1661416514 -0.1590955667
H 6.0482911993 -0.4307017747 1.0193992432
H 5.7231046186 0.7425565527 3.1756746185
H 3.6078680422 0.4532569244 4.4438742893
H 1.8225435780 -1.0194055530 3.5388543045
H 2.1498513620 -2.1814407320 1.3793997286
H -5.5232163767 0.6392951267 -0.7555385259
H -5.9139000928 1.8358780866 -2.0008775478
H -6.2985951923 2.1764232703 -0.3207680139
