31
CONF6
C -2.1459063716 -1.4596965156 0.5215025016
C -2.0911380341 0.0417260979 0.2863386304
C -2.3784372372 0.4000910766 -1.1938059376
C -0.9996319103 0.5243821706 -1.7802896052
C -0.5515634203 0.6494605213 -3.0864059038
C 0.8181615594 0.8119537058 -3.3207640653
C 1.7199196374 0.8461416792 -2.2568945693
C 1.2647707450 0.7208395149 -0.9488006053
C -0.0962872739 0.5634296635 -0.7203228437
O -0.6675311291 0.4525037552 0.5025578902
O 2.1571431847 0.8239207845 0.1143975177
C 2.3626347554 -0.3330872119 0.8514958669
O 1.9561957965 -1.4316977301 0.5102109393
N 3.0752081453 -0.0593616365 1.9537826520
C 3.4819633367 -1.1173691379 2.8683406918
C -2.9278790296 0.8182161622 1.2802163678
H -1.8100371228 -1.6992124413 1.5344825039
H -1.5082422264 -1.9833478131 -0.1983721864
H -3.1738406744 -1.8138587865 0.3972939466
H -2.9195187066 1.3511465619 -1.2722984103
H -2.9835980103 -0.3725217085 -1.6766750359
H -1.2528112779 0.6257858379 -3.9150477122
H 1.1877163410 0.9088777675 -4.3360924575
H 2.7848767675 0.9664371276 -2.4292034095
H 3.3560724264 0.8922587119 2.1290773898
H 4.1166433617 -1.8531362005 2.3631759466
H 4.0462011744 -0.6644025398 3.6844528343
H 2.6099447207 -1.6331885736 3.2831299245
H -2.6369019700 0.5715052807 2.3055684022
H -3.9824692533 0.5580723527 1.1478120309
H -2.8116579023 1.8941318249 1.1225731023
