18
CONF1
C 0.0276151594 -3.8707683556 -1.2109944280
C -0.1021111435 -3.2509163159 0.1864560611
C -0.0976573245 -1.7458757559 0.1328351480
C -1.2832429758 -1.0128696509 -0.0202778299
C -1.2931395950 0.3851398106 -0.0836892956
C -0.0831754472 1.0868108868 -0.0064736815
C 1.1212140858 0.3829284582 0.1215444878
C 1.0981948989 -1.0149652687 0.1821059088
Br 2.7463355048 -1.9663721273 0.3225229212
Br 2.7621351669 1.3221343989 0.2120580839
Br -0.0753693061 2.9780867040 -0.0771996844
Br -2.9239638655 1.3274859383 -0.2716108955
Br -2.9328570029 -1.9612859021 -0.1605000487
H 0.9600237119 -3.5581240504 -1.6887234914
H 0.0279405673 -4.9621312756 -1.1400745463
H -0.8071756484 -3.5693309370 -1.8496637025
H -1.0276860982 -3.5876830120 0.6566854865
H 0.7238185561 -3.5852788197 0.8169505922
