46
CONF3
C -4.6267684712 1.2288151833 3.9444072735
N -4.1000268707 0.8047512089 2.6511174701
C -3.8875579854 -0.6305820338 2.4982920591
C -3.6150673802 1.7273342581 1.8011226496
O -3.6259202682 2.9470379713 2.0013937572
C -3.1202973392 1.2515623065 0.4584556663
C -1.7787625831 1.2043774694 0.0916285622
N -1.3169630681 0.9592614637 -1.1227382819
C -2.2122497558 0.7252267697 -2.0872763627
C -3.5837790032 0.7276363679 -1.8455743932
C -4.0396588009 0.9974547566 -0.5638311851
S -0.4692788676 1.5132564010 1.3257858132
O -0.9951099628 1.2069317329 2.6584205710
O 0.1541545727 2.8171400461 1.0631831525
N 0.7339775628 0.3942519403 0.9104129048
C 0.4208347529 -0.9398112977 0.7175369389
O -0.6190250561 -1.4575064998 1.0999388343
N 1.3926217385 -1.6893712419 0.0693078101
C 2.5733870103 -1.3098454688 -0.5621724105
N 2.8943749549 -0.0155846211 -0.5898025839
C 4.0339371389 0.2953437426 -1.2227668584
C 4.8472677247 -0.6625552830 -1.8137999491
C 4.3985707036 -1.9778310553 -1.7089529331
N 3.2640483074 -2.3215842606 -1.0901757609
O 5.1590342022 -2.9284416738 -2.2640196776
C 4.7072933169 -4.2993489025 -2.1590898952
O 4.4140660705 1.5744003905 -1.2963391482
C 3.5580815403 2.5683885212 -0.6831095949
H -5.4887724862 0.6054201910 4.1999186159
H -4.9316376636 2.2737585100 3.8922046234
H -3.8637851437 1.1141063525 4.7250655826
H -4.8453987342 -1.1578798792 2.5646202203
H -3.4215030643 -0.8526403287 1.5386851986
H -3.2268720424 -0.9934271216 3.2949877848
H -1.8173915061 0.5262522167 -3.0800563186
H -4.2797145275 0.5232712497 -2.6514120944
H -5.1023903561 1.0147306780 -0.3422838353
H 1.5386296729 0.7510012811 0.3674554614
H 1.1713774499 -2.6746245280 0.0077086021
H 5.7672618434 -0.4046755351 -2.3204025661
H 4.6309403427 -4.5982447229 -1.1109249066
H 5.4726939719 -4.8842182948 -2.6680044736
H 3.7402575475 -4.4228113260 -2.6524110630
H 4.0519422087 3.5198875267 -0.8756319590
H 3.4779043226 2.3936588057 0.3933857474
H 2.5652735201 2.5557276170 -1.1413163462
