56
CONF28
C 1.0694177022 0.0097267344 -0.1204236491
C -0.2198664770 -0.7669160611 -0.3295692676
N -1.1327835100 -0.0277887097 -1.2140290951
C -1.4198182978 1.2702366239 -0.5847533198
C -0.1341618278 2.0532645981 -0.3812056579
N 0.7965733261 1.3189055068 0.4841818947
C 2.0351455434 2.1082565364 0.6491368103
C 3.0178399785 1.4793449423 1.5880329135
C 3.2704201592 1.9675236089 2.8103218190
C 4.2174786427 1.4411746689 3.7966931106
C 4.9502053319 0.2567677322 3.6069459234
C 5.8367384813 -0.1928117863 4.5765687806
C 6.0148180161 0.5241848641 5.7613596176
C 5.2929720530 1.6972395295 5.9665295226
C 4.4044492048 2.1484445533 4.9952301517
C -2.3717834447 -0.7889860726 -1.4403250598
C -2.0931350337 -2.1434844868 -2.0767897273
C -2.7842263239 -3.2705868522 -1.6304921507
C -2.5906676694 -4.5107340023 -2.2368915536
C -1.6952306456 -4.6374578919 -3.2956497813
C -0.9952152623 -3.5164693034 -3.7419091826
C -1.1951085558 -2.2782071921 -3.1396708818
C -3.3471376794 -0.0283981936 -2.3269147530
C -2.9205860139 0.6174434058 -3.4911705854
C -3.8365096745 1.2640796696 -4.3151762476
C -5.1935287666 1.2684275738 -3.9920199699
C -5.6253821865 0.6268190582 -2.8342207956
C -4.7050835313 -0.0143322552 -2.0063247730
H 1.7186911974 -0.5693244922 0.5447447996
H 1.5917705433 0.1187616817 -1.0928413741
H 0.0204770747 -1.7336056897 -0.7819665846
H -0.6952500023 -0.9636274948 0.6521538651
H -1.9298773962 1.1336952380 0.3895800476
H -2.0864727299 1.8486077947 -1.2314073164
H 0.3201245456 2.2636510410 -1.3706935314
H -0.3691416091 3.0156951012 0.0888648042
H 1.7474458696 3.0953899981 1.0300887863
H 2.5218147604 2.2615507651 -0.3362886785
H 3.5488709491 0.6000750023 1.2297663783
H 2.7312080064 2.8614524804 3.1263079224
H 4.8246496068 -0.3208434794 2.6968659149
H 6.3926023259 -1.1107392148 4.4106315586
H 6.7084516716 0.1680738243 6.5164748882
H 5.4207544298 2.2628652670 6.8844810968
H 3.8431908989 3.0644165874 5.1599629698
H -2.8856930416 -0.9808086745 -0.4783459759
H -3.4792667688 -3.1762971058 -0.7999841235
H -3.1355925667 -5.3781775693 -1.8766720687
H -1.5388219785 -5.6026595889 -3.7673310629
H -0.2894368835 -3.6082403081 -4.5621943858
H -0.6409672822 -1.4115880388 -3.4857588625
H -1.8649281079 0.6253491893 -3.7434796935
H -3.4906207768 1.7681264732 -5.2128106762
H -5.9069713563 1.7724218637 -4.6366606899
H -6.6785219688 0.6294939269 -2.5696313104
H -5.0443222461 -0.5093815678 -1.0999629811
