39
CONF120
C 3.5788007156 2.3431510174 -3.0037960718
C 3.2360808155 1.8462831072 -1.6007031488
C 3.2530447177 0.3221030773 -1.5078505467
C 2.9408715595 -0.2117970453 -0.1105566284
N 1.5838978300 0.1184740058 0.3398553577
C 0.5252889675 -0.5909273974 -0.0691621655
O 0.5845973245 -1.5820944654 -0.7989574592
N -0.7366787929 -0.1323534139 0.4185303175
C -1.1124531684 1.1495047805 0.8538423627
C -0.5006890595 2.3951866496 0.7809225778
C -1.2136654607 3.4799554771 1.2932884111
C -2.4939551187 3.3261324021 1.8379852214
C -3.1143770039 2.0806962671 1.8761436936
C -2.4142358851 0.9877908807 1.3724345877
N -2.8372336109 -0.3302673467 1.2550655566
C -1.8411722840 -0.9592474370 0.6914332870
N -1.7754350433 -2.2878159447 0.3561951774
C -2.6504697007 -3.2755317618 0.7666253265
O -3.5970805245 -3.1429436511 1.5124408840
O -2.2684292430 -4.4366136252 0.1934337835
C -3.0809823103 -5.5835624006 0.5425369243
H 2.8628243046 1.9581101183 -3.7382936571
H 4.5780178850 2.0088231193 -3.3039942183
H 3.5591349323 3.4361581793 -3.0553820506
H 2.2443714655 2.2182950442 -1.3147985011
H 3.9477467796 2.2599700163 -0.8740141377
H 2.5416858992 -0.1048815774 -2.2259319709
H 4.2464967747 -0.0525831341 -1.7863493970
H 3.6261934841 0.2230675029 0.6230476558
H 3.0598927433 -1.2995177263 -0.0839264221
H 1.4688646469 0.8224501233 1.0525302408
H 0.4737564212 2.5504036924 0.3335595316
H -0.7614303866 4.4655133961 1.2578133940
H -3.0150260475 4.1955466982 2.2256744727
H -4.1157590125 1.9562978925 2.2752023073
H -0.9875666738 -2.5499448045 -0.2322372911
H -2.6371440489 -6.4194796584 0.0037719515
H -4.1137480287 -5.4258686217 0.2233838925
H -3.0440340691 -5.7584849445 1.6202371430
