44
CONF86
C -4.2414838978 -1.8735616844 0.5585019365
C -2.7281276173 -1.7917941442 0.5297663660
C -2.0836449341 -2.6486169558 -0.5672387793
O -2.0059293145 -1.7430906695 -1.6701180857
C -1.6421960873 -0.5110890233 -1.0927190362
O -2.3176100769 -0.4491305910 0.1608025814
C -2.1499883430 0.6475138229 -1.9661299428
N -3.5822675406 0.6107132200 -2.1576142773
C -4.5580672047 1.0420109338 -1.3247185243
N -5.7489063921 0.7734347242 -1.8317279158
C -5.4336348873 0.1532226171 -3.0050573475
N -4.1362742849 0.0289113642 -3.2488878621
C -0.1268812374 -0.3990824552 -0.8795135972
C 0.3636654508 -0.0099999733 0.3696394396
C 1.7199480613 0.1127283320 0.6366147380
C 2.6289891016 -0.1549137160 -0.3825426586
C 2.1848754648 -0.5385624139 -1.6430260147
C 0.8211504414 -0.6561418487 -1.8788340154
Cl 0.3549717655 -1.1323862206 -3.5017560127
O 3.9925768892 -0.1233269270 -0.2064965973
C 4.5299239011 0.7478402499 0.7245428264
C 5.5081455640 0.2491864492 1.5757114532
C 6.1382703141 1.1022089543 2.4749423292
C 5.7708489576 2.4418520238 2.5121645396
C 4.7940333969 2.9455360903 1.6591584342
C 4.1729202942 2.0930509353 0.7552251844
Cl 6.5538830121 3.5187809697 3.6515807277
H -4.6509896089 -1.7228435350 -0.4448945135
H -4.6565454662 -1.1084346305 1.2198896409
H -4.5565802180 -2.8551279885 0.9280293762
H -2.3000426009 -2.0135595611 1.5154761940
H -1.0800116586 -2.9942628046 -0.2795820817
H -2.6977290667 -3.4977732067 -0.8736236870
H -1.8771299799 1.5822201840 -1.4667127076
H -1.6715441185 0.6119075880 -2.9458774931
H -4.3477584812 1.5286573730 -0.3823701392
H -6.1767082361 -0.2088113956 -3.7032711014
H -0.3560644158 0.1881130432 1.1552007617
H 2.0645989169 0.4042408485 1.6218595178
H 2.9041794501 -0.7431512023 -2.4264385746
H 5.7728920824 -0.8009550262 1.5245708623
H 6.9038611315 0.7278539667 3.1441516288
H 4.5297547978 3.9959223674 1.6941225489
H 3.4166256805 2.4707101117 0.0756774763
