47
CONF157
C -1.7121474593 4.5515967289 1.7395842298
C -2.5001264628 3.4639386973 1.0453361077
C -2.9955084941 2.3063130029 1.8460313153
C -1.7693030971 2.1131380787 0.9454438079
C -1.9102057001 1.2357885602 -0.2196360320
O -2.9314107243 0.9384063201 -0.8054733696
O -0.6836199960 0.7476703537 -0.5944485130
C -0.6913597591 -0.1138464924 -1.7630425442
C -1.3573115043 -1.3811491052 -1.4367361382
N -1.8508144605 -2.3962680236 -1.1919057255
C 0.7418647742 -0.3317410942 -2.1805016403
C 1.2263983163 0.3092196530 -3.3180069263
C 2.5627228924 0.1410740177 -3.6760256832
C 3.4016773061 -0.6655060070 -2.9184540899
C 2.8991256268 -1.3045939504 -1.7843852863
C 1.5717249841 -1.1386674068 -1.4026992229
O 3.7956907383 -2.0494834851 -1.0523572475
C 3.3161427768 -3.0877156388 -0.2602630549
C 2.5264471634 -4.0963789293 -0.8059958894
C 2.1275127326 -5.1519851446 0.0081351815
C 2.5218484449 -5.2023389696 1.3449301746
C 3.3209181340 -4.1891318564 1.8692469501
C 3.7203607544 -3.1210024479 1.0682386998
C -2.8312305060 2.2180794348 3.3108241339
C -2.7954126984 1.0582441588 3.9640616612
Cl -2.6509550656 0.9440710565 5.6957230677
Cl -2.8826996115 -0.4781943529 3.1499768054
C -3.3406523351 3.9536600371 -0.1102846857
H -1.0786176345 5.0727992884 1.0150729637
H -1.0714427394 4.1560625552 2.5320252778
H -2.3974197844 5.2835831876 2.1816788705
H -3.8790447800 1.8100652415 1.4466778769
H -0.8024846597 2.0755660871 1.4350984337
H -1.2595842517 0.3657849031 -2.5673153668
H 0.5686596078 0.9313928796 -3.9157848286
H 2.9516150013 0.6352377487 -4.5602474625
H 4.4409075950 -0.8121592037 -3.1931421311
H 1.1890394179 -1.6291629236 -0.5136084937
H 2.2312500192 -4.0527059263 -1.8495256798
H 1.5124637710 -5.9432314833 -0.4089475858
H 2.2095434424 -6.0300923405 1.9730654306
H 3.6333689175 -4.2229156506 2.9081899973
H 4.3384711746 -2.3200803239 1.4602198289
H -2.7570221795 3.1291050630 3.8979563562
H -3.9239229352 3.1507230172 -0.5625230946
H -2.7046644708 4.4033585361 -0.8803225545
H -4.0307916946 4.7234724295 0.2511618818
