35
CONF3
C -0.6899337623 -0.9845066001 -2.9826031505
C -0.1827723186 -0.9201773454 -1.5406372964
C 0.1370143572 0.5411614154 -1.1881928455
N 0.8151708448 0.6858756686 0.1042040918
C 2.2206538954 0.2998915850 0.0443247317
C 2.8768101430 0.3703708957 1.4023887974
O 3.8342477061 -0.3172922100 1.7159698978
N 2.3514905424 1.3060872832 2.2759061186
C 1.3071712488 2.1703476479 1.9991124603
O 0.9405151811 2.9986672114 2.8161702695
C 0.7003179053 2.0439606470 0.6226799277
N -1.1147138418 -1.6144561623 -0.6284772007
C -2.4545561903 -1.0601159978 -0.5098550826
C -2.6365362885 0.0296217036 0.5335275165
O -3.5327558020 0.8597840943 0.4873545325
N -1.7528211049 -0.0078206904 1.5958663195
C -0.7063619849 -0.9108246551 1.7591997128
O -0.0262929503 -0.8969807526 2.7735799280
C -0.5883118035 -1.9704804471 0.6809232076
H -1.5248191879 -0.2970814538 -3.1542310855
H -1.0150631981 -1.9991178399 -3.2268234398
H 0.1136832187 -0.7003048298 -3.6674586676
H 0.7418170511 -1.5088326420 -1.4949593184
H -0.8041783802 1.1051371750 -1.1434983164
H 0.7318511740 0.9901885756 -2.0053300000
H 2.3332948507 -0.7272649141 -0.3086377804
H 2.8090454141 0.9507506653 -0.6362842861
H 2.7755029266 1.3705632129 3.1964879628
H -0.3514969306 2.3326295767 0.7023683144
H 1.2034331363 2.7939794555 -0.0228925994
H -3.1543844877 -1.8612455736 -0.2191971310
H -2.8086306090 -0.6645966594 -1.4638126398
H -1.8666858432 0.6984788586 2.3175057656
H 0.4621996828 -2.2643623431 0.6124625334
H -1.1439038009 -2.8420348407 1.0689530394
