41
CONF116
C -4.8703773902 -0.9060353561 -0.4639641827
C -4.5318169356 -0.1029740803 0.7912425360
N -3.5874833039 0.9981036846 0.5513864861
C -4.1485595884 2.3311485544 0.3435921685
C -4.3279883022 2.6738160849 -1.1349994998
O -4.7261195435 4.0466770735 -1.1837027187
C -2.2512173382 0.7728347166 0.4294617559
C -1.3399571055 1.8267862771 0.1425498514
C 0.0104197178 1.5842828758 0.0593757360
C 0.5424545880 0.2922690995 0.2424907689
C -0.3560219493 -0.7647981307 0.5155364847
C -1.7053815058 -0.5357969643 0.6019466410
N 1.9109071068 0.1783739720 0.1312598923
N 2.3937068747 -0.9939612117 0.2829052428
C 3.7881538190 -1.0569542408 0.1795526832
C 4.3435907786 -2.3461797841 0.2682557522
C 5.7096559768 -2.5362016233 0.1824987184
C 6.5311317175 -1.4219048205 0.0110849362
C 6.0061957074 -0.1286972335 -0.0743922343
C 4.6411440562 0.0532057262 0.0092033135
N 7.9706724507 -1.6093807239 -0.0792851371
O 8.6818220567 -0.6126975861 -0.2260681168
O 8.4160526755 -2.7570364427 -0.0079868384
H -3.9727995380 -1.3317649736 -0.9211904954
H -5.3701580282 -0.2789833559 -1.2069070992
H -5.5439931138 -1.7270881766 -0.2002432197
H -4.1269318932 -0.7569792210 1.5701583172
H -5.4414361519 0.3416120987 1.2025323294
H -3.5119142683 3.0871849167 0.8158011848
H -5.1183634854 2.3745550981 0.8459786095
H -3.3838355582 2.5141502986 -1.6757184432
H -5.0942056082 2.0248361180 -1.5798950710
H -4.9191308029 4.2680834681 -2.1023214390
H -1.6946113231 2.8361486650 -0.0179454690
H 0.6956490109 2.3984432089 -0.1566324667
H 0.0278293321 -1.7687752927 0.6547366873
H -2.3571602713 -1.3751971556 0.8050840301
H 3.6770731026 -3.1915108690 0.4033315589
H 6.1411310698 -3.5268421718 0.2472178942
H 6.6718768540 0.7156071329 -0.2035078751
H 4.2199971101 1.0487988380 -0.0524237329
