21
CONF1
C -2.3359701731 0.6046751123 -0.5484313646
C -0.9306520550 0.2460279562 -0.1764813659
C -0.5270549438 -1.0658970180 0.1176329583
C 0.7805588597 -1.4460917989 0.3703006882
C 1.7524796595 -0.4616257792 0.3502618561
C 1.4484851394 0.8569095570 0.0623215875
C 0.1225095823 1.1742666756 -0.1806411194
N -0.1523509776 2.6059133162 -0.4381865339
O -1.1399316811 3.0895135614 0.0960832974
O 0.6430637870 3.2065090895 -1.1455224125
N 3.1543591725 -0.8296436578 0.6372559211
O 3.3849673926 -2.0034292571 0.8903732825
O 3.9876943717 0.0641807827 0.5972326893
N -1.5313686244 -2.1509256800 0.1931582144
O -1.2229759907 -3.2288832491 -0.2930943426
O -2.5838356875 -1.8986261104 0.7616780682
H -2.3501507416 1.4434194520 -1.2445546216
H -2.8449791988 -0.2434733366 -1.0057020128
H -2.9030585616 0.8971235634 0.3402138926
H 1.0303725622 -2.4779025308 0.5819979577
H 2.2178382197 1.6179592404 0.0341030584
