43
CONF1
C 0.2980892905 1.5002225184 1.5350922186
O 1.6913297685 1.0004418303 1.5089405960
C 1.7234649468 -0.0248686964 0.5957716088
C 2.8726961021 -0.5913316304 0.0456643803
O 4.0755239587 -0.1607923677 0.5265411947
C 5.2517585664 -0.7039291354 -0.0878111096
C 2.6793408701 -1.5222906820 -0.9865206364
C 1.4000809325 -1.8163756276 -1.4736676982
C 0.2591218532 -1.2386342368 -0.9065073841
C 0.4692658613 -0.4049618397 0.1773231558
C -0.5744623853 0.3868723799 0.9114337902
C -1.2972405366 -0.4508107272 1.9829712213
C -2.0383981000 -1.6314301284 1.3450956698
N -2.9181900712 -1.2538951515 0.2271609732
C -4.1517439876 -0.6115768503 0.6872572700
C -2.1928891412 -0.4518141255 -0.7784248227
C -1.1280760128 -1.3211645785 -1.4959886372
C -1.5913833394 0.8407916814 -0.1580300155
C -0.9219769426 1.7545456109 -1.1439893005
C -0.0341746845 2.6543064601 -0.7149247139
C 0.2268879001 2.8345774005 0.7591047334
O 1.3718964630 3.6430591098 1.0281719080
H 0.0739652859 1.6758272317 2.5900891633
H 5.2807458196 -0.4668303030 -1.1579865170
H 6.0945619470 -0.2307958465 0.4166831871
H 5.3017973989 -1.7903837728 0.0509500258
H 3.5366079200 -1.9894117209 -1.4568195509
H 1.3067199465 -2.4831381728 -2.3267565136
H -1.9947003117 0.2039280563 2.5204821201
H -0.5686716724 -0.8237105514 2.7133040906
H -2.6420783345 -2.1494696286 2.0985873651
H -1.3005205882 -2.3551308215 0.9748967052
H -4.0050604727 0.3088490850 1.2773706784
H -4.7084968673 -1.3188958963 1.3117099423
H -4.7725306414 -0.3589928388 -0.1791695032
H -2.9327536178 -0.1521313945 -1.5312296056
H -1.0625559641 -0.9950368944 -2.5413098758
H -1.4952736607 -2.3540533661 -1.5238812190
H -2.4094921250 1.3906108055 0.3308039486
H -1.1627740236 1.6619155208 -2.2015524892
H 0.4700162781 3.3387932340 -1.3928715716
H -0.6258924317 3.3820969305 1.1877357795
H 2.1454647131 3.0750184316 0.8988228260
