25
CONF2
C 4.2303750967 -0.4043691409 0.0604767666
C 3.5015487536 0.8399843829 -0.4413549346
N 2.2158245650 1.0524155964 0.2136776938
C 1.0866366097 0.3824288617 -0.1040528146
N 0.0175167093 0.5754417522 0.6826781952
C -1.0771527900 -0.0998884828 0.3019872511
N -1.1639845837 -0.9200283420 -0.7777782661
C -0.0291729569 -1.0025308726 -1.4406052782
N 1.1255879432 -0.4162220215 -1.2025159147
Cl -0.0605543459 -2.0537821812 -2.8565604732
N -2.1818603881 0.0341904864 1.0677340474
C -3.4891092448 -0.5088113996 0.7165009362
C -4.2362114001 0.3439163591 -0.3062262626
H 5.1921395050 -0.5111459506 -0.4508840304
H 4.4187458408 -0.3436342266 1.1368853286
H 3.6332873240 -1.2975602316 -0.1406935392
H 4.1053060224 1.7370008564 -0.2663102068
H 3.3253413121 0.7639118120 -1.5175318281
H 2.1831012033 1.5546705926 1.0860609262
H -2.1133361758 0.7227634369 1.7995580852
H -3.3424837170 -1.5198212949 0.3275616664
H -4.0651967169 -0.5902515779 1.6446064297
H -4.3954637206 1.3599022918 0.0683553333
H -5.2132803850 -0.0979873127 -0.5253244359
H -3.6676047618 0.3994064003 -1.2381071679
