47
CONF6
C 4.2480398654 -4.1795577625 -0.9751574527
C 5.0996392775 -2.9077260401 -1.0897284581
C 4.6126695179 -1.8202005886 -0.1938304082
N 5.1678687876 -1.5900868275 1.0023363738
N 4.4705119655 -0.5957864393 1.5645500427
C 4.8773743107 -0.1230324596 2.8839555055
C 3.4587430808 -0.1418994541 0.7656974027
C 2.5567110082 0.9446585794 1.2118757825
O 2.5334989644 1.3105383022 2.3863134998
N 1.7857435460 1.5041883524 0.2402637245
C 0.7565324506 2.4908244400 0.5384286021
C -0.6357550033 1.9631334860 0.2833704537
C -1.5480706474 2.6819011912 -0.4874099192
C -2.8350053212 2.2023384523 -0.6971007681
C -3.2606377098 0.9859678307 -0.1513372591
C -2.3354590169 0.2705451455 0.6148738767
C -1.0470481655 0.7492014983 0.8290719403
C -4.6876154969 0.4947837142 -0.4065433513
C -5.6868520375 1.5321631147 0.1396542220
C -4.9714066633 -0.8492645881 0.2744177408
C -4.9047677857 0.3231890801 -1.9218405648
C 3.5433771029 -0.9353992547 -0.3820163217
Cl 2.5373188930 -0.8973430340 -1.7974409720
H 4.2682951173 -4.5616007899 0.0493665904
H 3.2065350783 -3.9778139891 -1.2422054836
H 4.6262281064 -4.9595451724 -1.6425429334
H 6.1385276315 -3.1258605431 -0.8251577463
H 5.0918972014 -2.5499574561 -2.1255410949
H 5.0448403297 0.9551986242 2.8678073106
H 5.8000216266 -0.6523655628 3.1244349047
H 4.1040088034 -0.3380661721 3.6235977073
H 1.7959522602 1.1025584576 -0.6850931316
H 0.8817649181 2.7598602883 1.5923638805
H 0.9266224114 3.3943068239 -0.0600644405
H -1.2497967967 3.6294464954 -0.9291474817
H -3.5158010909 2.7906849202 -1.3042215865
H -2.6130398718 -0.6766245486 1.0615107456
H -0.3519833408 0.1706070066 1.4317474701
H -5.5695066672 2.5031187665 -0.3496630112
H -5.5439297928 1.6771805078 1.2151789703
H -6.7144853385 1.1921346916 -0.0295791338
H -4.3085085864 -1.6383739244 -0.0950237641
H -4.8621733745 -0.7824893949 1.3616617323
H -6.0008454650 -1.1543149496 0.0621000493
H -5.9215287621 -0.0343363383 -2.1185477746
H -4.1975409358 -0.4034890383 -2.3341391403
H -4.7709669725 1.2666041621 -2.4584469437
