51
CONF46
C 1.2916033303 0.1529127152 2.3298817289
C 2.0338195706 -0.6402441299 1.2866325826
C 1.5769099333 -1.9145392531 0.8979019723
C 2.2974840579 -2.6778263024 -0.0215119764
C 3.4854318260 -2.2011699865 -0.5612178317
C 3.9376045844 -0.9393278027 -0.1997109989
C 3.2204773634 -0.1461148208 0.7050081159
C 3.7533961019 1.2031249206 1.0200306967
C 5.0743103357 1.3530398969 1.4605347112
C 5.5973379093 2.6157650245 1.7255475952
C 4.8100503462 3.7510233918 1.5468331153
C 3.4968451641 3.6144009878 1.1000471115
C 2.9725902342 2.3519236857 0.8407269107
C 0.3208614442 -2.4993180494 1.4824333413
O -0.8464882846 -1.6521192903 1.2454800164
C -1.3577371838 -1.6735634558 -0.0043377299
O -0.9308179737 -2.3774238677 -0.8997006986
C -2.4977383992 -0.7350830985 -0.0984663984
C -2.9316063805 -0.2677174826 -1.4915141904
C -3.8419252579 -1.1597041802 -0.6660666163
C -4.0446201963 -2.5704368539 -1.1689221999
C -5.0639360108 -0.5740318436 0.0060629570
C -3.2142395938 1.1463698733 -1.6917854430
C -3.0063281612 1.8380131402 -2.8148255449
C -3.3332917522 3.2928121689 -2.9662706790
F -2.2414826250 4.0299827429 -3.2926616100
F -4.2466222231 3.5078835162 -3.9475991270
F -3.8401678977 3.8110214367 -1.8291915774
Cl -2.3350864233 1.1429900221 -4.2739411631
H 0.4802665162 0.7404434628 1.8867072264
H 0.8378150827 -0.5037387423 3.0762031092
H 1.9616171888 0.8470690859 2.8403917342
H 1.9179584834 -3.6529288284 -0.3127492713
H 4.0456035202 -2.8006791050 -1.2717929158
H 4.8503210680 -0.5438222208 -0.6358437795
H 5.6891840463 0.4696699371 1.6075573112
H 6.6208535184 2.7120185009 2.0750707333
H 5.2172074769 4.7361992986 1.7521093182
H 2.8793743933 4.4945779661 0.9482242094
H 1.9525469956 2.2548592329 0.4813088874
H 0.3706524341 -2.5676205350 2.5718674094
H 0.1300672286 -3.4917074193 1.0683222048
H -2.5459321573 -0.0001725448 0.6981631505
H -2.4231777019 -0.7796114121 -2.3024666808
H -3.1654930281 -2.9524618643 -1.6891466877
H -4.2742269945 -3.2374751907 -0.3305492131
H -4.8948874429 -2.5879049701 -1.8587371185
H -5.3905074943 -1.2404289558 0.8110571202
H -5.8832727469 -0.4872444306 -0.7159203531
H -4.8769907623 0.4101490981 0.4400103141
H -3.6356132617 1.7016725371 -0.8591844029
