45
CONF102
C 8.1574400360 0.4554449974 -0.0544398132
C 6.7707193644 0.7839877009 -0.6046258079
C 5.6761376826 -0.1052380257 -0.0154288494
C 4.2849990233 0.2061934570 -0.5658238622
C 3.1965740737 -0.6815963616 0.0391108788
C 1.8112039830 -0.4948079054 -0.5865191208
C 1.2225400362 0.8993911185 -0.3720111731
C -0.2161602412 1.0597508581 -0.8994326966
C -1.2316156225 0.1975404166 -0.1886086085
C -1.6128070010 -1.0346058593 -0.7359036180
N -2.5230448394 -1.7524453749 -0.0164710611
C -3.0505932138 -1.3082980571 1.1872312404
N -3.9038464436 -2.2428663563 1.6420456311
C -3.8468114883 -3.1995975213 0.6895289279
N -3.0326868604 -2.9737797464 -0.3447715498
N -2.7105608436 -0.1394166309 1.7224052062
C -1.8183035804 0.5918948475 1.0358201566
C -1.5286384016 1.9419478861 1.6391860068
C -2.5738758030 2.9755161748 1.1910465823
N -1.2188235734 -1.5609721019 -1.9114236905
H 8.4290894853 -0.5829370671 -0.2751836675
H 8.1856354995 0.5821062365 1.0336246908
H 8.9260615960 1.1030882340 -0.4880887960
H 6.7717347440 0.6764036930 -1.6975340950
H 6.5307016693 1.8354819092 -0.3981119203
H 5.6682112256 0.0067578701 1.0782211438
H 5.9192787219 -1.1586255176 -0.2152439503
H 4.2886735826 0.0789369615 -1.6581394828
H 4.0564264545 1.2632727887 -0.3777126741
H 3.1320888380 -0.4935786771 1.1200807707
H 3.4957020515 -1.7320469053 -0.0749142818
H 1.1303182850 -1.2419477803 -0.1577731853
H 1.8734549032 -0.7029974256 -1.6648261200
H 1.2438248021 1.1304985281 0.7012388008
H 1.8469895336 1.6511250541 -0.8684761002
H -0.5139798868 2.1083453026 -0.8084008073
H -0.2297038181 0.8527425885 -1.9760411439
H -4.4244775193 -4.1151353003 0.7407602502
H -0.5281921646 2.2897958515 1.3749138686
H -2.3684660136 3.9472648018 1.6493688727
H -3.5775231085 2.6580718174 1.4885319178
H -0.4094803318 -1.1847624104 -2.3748143043
H -1.4495530100 -2.5248634886 -2.1009864344
H -1.5648350179 1.8376568618 2.7274839437
H -2.5641085222 3.1004832034 0.1035021057
