57
CONF5
C 2.8863793837 1.3594132495 -3.4933863785
C 2.4708369747 0.4139385486 -2.3723322042
C 1.0332921848 -0.1665530732 -2.5287839611
C 0.3220704590 0.2576866666 -1.2438802755
C -1.0253359885 -0.3647867892 -0.8646930282
C -1.0618103811 -1.8938517677 -0.7556202451
C -2.4553438314 -2.3967419721 -0.3579153306
C -2.9272352453 -1.7109450609 0.8843309973
C -3.3211906998 -2.3954817047 1.9764738655
C -3.8206681548 -1.7465213890 3.1835500122
O -4.1967344285 -2.4024421738 4.1682490133
C -3.8715046833 -0.2855266799 3.1703858089
C -3.4362624474 0.4189371974 2.1135128264
C -2.9574453460 -0.2036778328 0.8392489440
C -1.5357598122 0.3307613654 0.4191459482
C -0.4695433463 0.2842495430 1.5412035047
C 0.8695461742 0.9000999759 1.1004781466
C 1.4221289163 0.2401623240 -0.1595028841
C 2.5176081771 1.0736511228 -0.9579940443
C 3.8958586320 0.9977274668 -0.3230503785
O 4.6682337019 0.0735468452 -0.5257651296
C 4.3059544836 2.1022734463 0.6247538319
O 5.5361256071 1.8100246711 1.2575326223
O 2.2208289815 2.4721564356 -0.9703949236
C 1.9853408410 -1.1476897276 0.1882878079
O -0.8568442711 1.0329017584 2.6970283255
F -1.7185978009 1.7059412045 0.1109828097
C -4.0162607271 0.2346477867 -0.2219077669
H 2.9223947246 0.8131022580 -4.4410800322
H 2.1759953394 2.1842013495 -3.6098260960
H 3.8777979688 1.7864206456 -3.3077196243
H 3.1868918521 -0.4117929137 -2.3411440281
H 1.0673229127 -1.2547242397 -2.6367678341
H 0.5315821539 0.2360747649 -3.4144882977
H 0.0668430758 1.3181560002 -1.3747768832
H -1.7261756586 -0.0853124962 -1.6622426706
H -0.7789383910 -2.3259479970 -1.7201643873
H -0.3459019811 -2.2625458858 -0.0208887964
H -2.4417636326 -3.4789210991 -0.2039764288
H -3.1603164450 -2.1915162340 -1.1741232846
H -3.3042819533 -3.4826846640 1.9799681556
H -4.2654582975 0.2065802299 4.0554251609
H -3.4851754669 1.5043900458 2.1200760081
H -0.3359766498 -0.7714361521 1.8149122791
H 0.7062593813 1.9693807840 0.9319837950
H 1.5643689537 0.7955809863 1.9414158216
H 3.5085396313 2.2478288137 1.3686525246
H 4.3708173979 3.0367129630 0.0480285170
H 5.8545308237 0.9869628290 0.8480182386
H 1.3920328567 2.6199102081 -1.4419426140
H 1.2831800436 -1.7177728469 0.7953962658
H 2.2299804150 -1.7439588644 -0.6936700856
H 2.8928559252 -1.0423547863 0.7878805152
H -1.4090771825 0.4735213063 3.2574186895
H -4.1192314619 1.3207994650 -0.2195211225
H -3.7439952816 -0.0908639857 -1.2261990761
H -4.9787691004 -0.2130064518 0.0394169686
