23
CONF15
C -3.1297850453 -1.0080351036 -1.0119355084
C -1.7757543453 -1.4293448469 -0.4746701363
C -0.6553563509 -0.3461103495 -0.5921757765
C 0.6602335312 -0.6807212330 0.1935361816
C 1.8985696208 0.1583932213 -0.2822848353
C 3.0724867038 0.1726504150 0.7558992138
C 4.4446533743 0.6295882926 0.1596884548
F 5.3113045277 0.8125478751 1.1648567200
F 4.9415045515 -0.2957329769 -0.6675695355
F 4.3018859593 1.7845788190 -0.5053043038
F 3.2413631844 -1.0696308845 1.2650780770
F 2.7599722437 1.0223979637 1.7578023017
F 2.3537839937 -0.3641249262 -1.4440543277
F 1.5122542323 1.4365399526 -0.4985682362
F 0.4479684148 -0.4285636080 1.5069129987
F 0.9541401355 -1.9910236632 0.0405591315
F -1.1303995793 0.8336337966 -0.1280114829
F -0.3575273601 -0.1975474283 -1.9082271248
F -1.3679751949 -2.5031392926 -1.2233574824
F -1.8403786533 -1.8440157805 0.8221381601
I -4.3303239605 0.1850294685 0.3367711001
H -3.0180831483 -0.4391165690 -1.9346130156
H -3.7071486812 -1.9140635129 -1.1945571795
