44
CONF56
C -0.8090324731 -2.6798824866 1.8136437479
C -0.8836433723 -1.1591812953 1.9278730630
C -2.2408569078 -0.7031370190 1.3867556914
O -3.2454919003 -0.6907632616 2.0697318358
O -2.1899579177 -0.4270204003 0.0818638889
C -3.4348916469 -0.0075060589 -0.5869516654
C -3.6432240964 1.4750146228 -0.3450271738
C -3.2452883315 -0.3577245913 -2.0478861459
N 0.2385639177 -0.4575335203 1.2670784530
C 1.0025196597 -1.0995732407 0.2414924729
C 2.0055145739 -2.0092084661 0.5732948747
C 2.7446471149 -2.6253768113 -0.4283858784
C 2.4818210817 -2.3155198290 -1.7517773944
C 1.4891980840 -1.4022172868 -2.0929684261
C 0.7390075999 -0.7979317443 -1.0943131042
Cl 1.1859337806 -1.0330050684 -3.7713613072
F 3.2031229303 -2.9064603094 -2.7222498516
C 0.2224959817 0.9099499383 1.3985358120
O -0.6788910958 1.4755411383 2.0242916120
C 1.3361755559 1.6935923545 0.7874589955
C 2.6773633755 1.3508599463 0.9809182317
C 3.6817873647 2.1551399608 0.4526124091
C 3.3537483779 3.2906822149 -0.2861076477
C 2.0166688998 3.6355095817 -0.4767178425
C 1.0098692718 2.8484263733 0.0715333247
H -1.6751463732 -3.1010812801 2.3302441845
H -0.8292653488 -3.0080483222 0.7712706513
H 0.0939762833 -3.0632289440 2.2926966618
H -0.8759757869 -0.8736495700 2.9836551028
H -4.2508417936 -0.5906754063 -0.1492212605
H -2.8001342882 2.0448932434 -0.7492798134
H -3.7424436750 1.6911286214 0.7216098045
H -4.5570964523 1.7994181895 -0.8517627032
H -3.0566871389 -1.4276832869 -2.1716866665
H -2.4061740689 0.2035297472 -2.4715808498
H -4.1514102081 -0.0974992236 -2.6023698557
H 2.2230642246 -2.2201214499 1.6140571379
H 3.5324691779 -3.3336713019 -0.1963107118
H -0.0434088556 -0.0945426104 -1.3515570769
H 2.9354021489 0.4689461139 1.5573780455
H 4.7223929621 1.8944699271 0.6177394300
H 4.1395471839 3.9096170246 -0.7076046150
H 1.7585903893 4.5208572338 -1.0490648363
H -0.0340171448 3.1146672621 -0.0615505992
