32
CONF1
N 4.9714172527 -0.8631198758 0.6413900425
C 3.6331172869 -0.8654229307 0.7273254724
C 2.8174191176 -0.0572887905 -0.0911276457
N 3.1171721148 0.8581866829 -1.0823215350
C 1.9442912589 1.3046866378 -1.4702439893
N 0.8843813511 0.7311670812 -0.7978957427
C -0.5191006170 1.0128733558 -1.0322659085
O -1.1233444958 1.3935100686 0.1914073208
C -2.4967640627 0.8926217319 0.2456579771
C -2.6570069956 0.0048639594 1.4689747457
O -1.9760057313 -1.2390852517 1.3622465660
C -2.7439716761 0.1928203192 -1.0964641078
O -3.2323928750 1.0999183860 -2.0908393060
C -1.3317942931 -0.1926705795 -1.5471804067
O -1.1829502681 -0.4226790340 -2.9299067099
C 1.4387719291 -0.1543532609 0.1032166663
N 0.8251008646 -0.9434795505 0.9984793768
C 1.6979973514 -1.6638070030 1.7136223378
N 3.0322701056 -1.6707851156 1.6328377676
H 5.4402966039 -0.2690295635 -0.0217316110
H 5.5169344099 -1.4526047897 1.2489423455
H 1.7717182024 2.0475588345 -2.2398448415
H -0.5504947838 1.8256729478 -1.7734635711
H -3.1657652561 1.7573935268 0.3448365759
H -3.7238353250 -0.2171106453 1.5917577782
H -2.3262238226 0.5712541398 2.3531248195
H -1.0082102306 -1.0630706945 1.2924598707
H -3.4030932650 -0.6760428418 -0.9920350041
H -4.1740183490 1.2445050414 -1.9369749052
H -1.0165447688 -1.0983113226 -1.0229447443
H -1.7232478438 0.2408275404 -3.3853374923
H 1.2638771014 -2.3289985859 2.4591409243
