44
CONF123
C -4.5553939549 -1.5091074717 1.7516656818
C -3.3716384293 -0.5929903294 1.4679083943
C -3.6449110738 0.4446567840 0.3133064612
N -2.3465594117 0.7028603894 -0.2892878120
C -1.1929759122 -0.1137065950 0.1300907182
S -1.9259705823 -1.6234973733 0.8549457484
C -0.7128090729 -0.1003251651 -1.3549721298
C -1.9560099093 0.7806719640 -1.6155753259
O -2.4449972164 1.3259859402 -2.5758822687
N 0.5744905858 0.4390932390 -1.6738538514
C 1.6003324245 -0.3283281413 -2.0898274711
O 1.4873607972 -1.5496691834 -2.2789398456
C 2.9257665635 0.4033378924 -2.2676506369
C 3.6127293582 0.5296151327 -0.9099881177
C 3.8339223615 -0.5975910367 -0.1143492183
C 4.4742525563 -0.4688070686 1.1142579089
C 4.8997836024 0.7823949248 1.5559425978
C 4.6813875721 1.9061934182 0.7634605333
C 4.0389987690 1.7818057274 -0.4659190380
C 3.9065998255 -0.2606033517 -3.2478368342
O 4.8118124080 0.3766879947 -3.7415310240
O 3.7483692535 -1.5601598200 -3.4823189332
C -4.6852273262 -0.0604079342 -0.6804040770
O -5.8456773566 0.2831799230 -0.6374083241
O -4.1926258766 -0.9509930877 -1.5530649206
C -2.9740538569 0.1725297159 2.7317486304
H -4.8265950433 -2.1178712285 0.8849901636
H -4.3103321870 -2.1768416944 2.5818360553
H -5.4206742742 -0.9063280758 2.0465830513
H -4.0713848945 1.3455752525 0.7663065875
H -0.5181654864 0.3942290985 0.8256996716
H -0.8371369241 -1.0778958195 -1.8293868387
H 0.7436827578 1.4207612387 -1.4994944821
H 2.7406474266 1.4087930884 -2.6549588240
H 3.5068735253 -1.5774659308 -0.4501922774
H 4.6418641923 -1.3490913173 1.7266255044
H 5.4000816961 0.8803553093 2.5140450316
H 5.0103030184 2.8841604018 1.1005030157
H 3.8699753995 2.6583488743 -1.0841754120
H 2.8948056750 -1.8463173827 -3.0371061495
H -4.9137258929 -1.2387942052 -2.1403980071
H -3.8275751434 0.7655830866 3.0790272605
H -2.1351010891 0.8512058124 2.5548319247
H -2.6944981507 -0.5312320011 3.5192243711
