38
CONF5
C 2.0904394072 2.4122627552 1.9060300061
C 2.6494368441 1.0276421121 1.5840448299
C 2.4572176350 0.6233781651 0.1362793519
O 1.0463656679 0.4981562827 -0.1119605508
C 0.7717953311 0.0811622478 -1.4214731688
C -0.6696891808 -0.3511545833 -1.5410649957
N -1.5580016425 -0.4405539077 -0.6411720969
C -1.4051054279 -0.1164637406 0.7039701720
C -1.7523776394 1.1641138088 1.1493058966
C -1.6877871655 1.4940955865 2.4936913960
C -1.2932716931 0.5272264968 3.4113986343
C -0.9868893545 -0.7636135729 3.0112626906
C -1.0555233462 -1.0893625821 1.6582870621
C -0.7204871132 -2.4808955608 1.2139283885
F -1.7564704842 -3.0793073967 0.5671454394
F 0.3339893378 -2.5137587647 0.3525756167
F -0.3947785575 -3.2874233609 2.2492116751
Cl -1.1906655514 0.9434414713 5.1174763676
N -1.0462576157 -0.7208527973 -2.8521025224
C -0.2459671800 -0.7703568593 -3.9906019532
C -1.0633792215 -1.1948948839 -4.9947323308
N -2.3492510235 -1.4106542917 -4.5201630376
C -2.3092447837 -1.1222292836 -3.2433594901
H 1.0125447772 2.4540890658 1.7250823713
H 2.2651813367 2.6687431761 2.9553430783
H 2.5693033436 3.1776797813 1.2852694961
H 3.7259017596 0.9996306106 1.7911282819
H 2.1823946870 0.2687852750 2.2248378133
H 2.8841034241 1.3790053749 -0.5426667746
H 2.9454250636 -0.3415147288 -0.0688193090
H 0.9623113608 0.8865748679 -2.1514473792
H 1.4020283366 -0.7785146149 -1.7111713507
H -2.0497768389 1.9095169967 0.4196819089
H -1.9352572658 2.4975840021 2.8216578430
H -0.6935478824 -1.5084439277 3.7402654117
H 0.8005125362 -0.5128704015 -3.9849358798
H -0.8046048274 -1.3585544320 -6.0313801163
H -3.1306177677 -1.1716680844 -2.5432882600
