26
CONF29
C -2.3538178287 -1.1630056531 0.0194565715
C -1.5176681475 -0.7121468121 1.2077074095
C -0.1783722625 -0.0593143531 0.8188956178
C 0.6619628380 -0.9307879739 -0.1287037219
C 2.1193175042 -0.4813072279 -0.3448980906
C 2.3402091243 0.8965853134 -0.9700482348
O 2.1841706440 1.9541652325 -0.0213372517
O 2.8488505135 -0.5898232845 0.8846443684
O 0.6846980705 -2.2783839975 0.3621899733
O -0.4215104451 1.2469362764 0.2568395458
O -2.2501361771 0.1775555198 2.0569916671
O -2.5548416867 -0.0400962834 -0.8628601168
H -1.8400473598 -1.9796596828 -0.5042746051
H -3.3185452258 -1.5343067235 0.3896650877
H -1.3052092385 -1.6023384112 1.8068669108
H 0.3815185199 0.1217187201 1.7452063840
H 0.1693562331 -0.9639164944 -1.1099595236
H 2.5508949679 -1.2258064562 -1.0272519407
H 1.6732394388 1.0250940370 -1.8344359847
H 3.3750178675 0.9510750557 -1.3226803211
H 2.7962848428 0.2838517182 1.3034737293
H 1.3142633463 -2.2838502280 1.0991936455
H -1.0082565610 1.1152398567 -0.5092684110
H -2.2489016134 1.0427021572 1.6233108939
H 1.2238213027 2.0107914268 0.1455566570
H -3.0084593247 -0.3515047729 -1.6546919379
