46
CONF14
C 1.0496814154 1.7438827015 -1.1771186889
C -0.2717930815 1.0989984035 -1.5909015651
C -1.3759122897 2.1095853631 -1.9224980568
C -1.7467050756 3.0212424409 -0.7716344838
O -2.2618982214 2.1820048973 0.3029827445
C -2.2013073114 2.6936202069 1.5385091940
O -1.8046655964 3.8000085041 1.8249488164
C -2.7503135360 1.7287101495 2.5913010884
C -4.2132349497 2.0522940758 2.8567596001
O -2.6970190499 0.3595671800 2.1970246736
C -1.4725164290 -0.2036976671 1.9819994031
C -1.4972666902 -1.5226606425 1.5158300755
C -0.3138907515 -2.1939309131 1.2592307738
C 0.8976774280 -1.5388849250 1.4577985460
C 0.9374198180 -0.2371942724 1.9230388111
C -0.2513541649 0.4386626196 2.1944269680
O 2.1048351143 -2.2148358169 1.2665776764
C 2.4789286228 -2.5183601808 -0.0038611661
C 3.6218364385 -3.3195745565 -0.1387620878
C 4.1163010447 -3.6819347977 -1.3703500166
C 3.4563673251 -3.2365143597 -2.5266896579
C 2.3157216417 -2.4348270905 -2.4102116252
C 1.8319133379 -2.0803748266 -1.1592408805
C 3.9489865131 -3.6015536993 -3.8093377801
N 4.3475063371 -3.8972895800 -4.8561793825
F 4.2451681774 -3.7362806711 0.9749418060
H 0.9581054413 2.2772475528 -0.2257221538
H 1.8308958386 0.9884715688 -1.0480875349
H 1.3956501132 2.4578626621 -1.9329137620
H -0.1110085218 0.4726630785 -2.4773359498
H -0.6243441873 0.4334395570 -0.7929275918
H -1.0519317109 2.7531067819 -2.7513866115
H -2.2735026204 1.5805306065 -2.2634133083
H -0.8944707887 3.5911372219 -0.3923538657
H -2.5337292046 3.7300685117 -1.0507447365
H -2.1587282825 1.8893386063 3.5027749834
H -4.8038146095 1.8893815168 1.9514160310
H -4.5944564598 1.4045916044 3.6495196498
H -4.3088527829 3.0949283409 3.1680487403
H -2.4571751128 -2.0039123919 1.3659578610
H -0.3222218317 -3.2196633669 0.9056693514
H 1.8954786237 0.2469368901 2.0768751847
H -0.2002335370 1.4577139902 2.5592361241
H 5.0018681348 -4.3032737010 -1.4308131960
H 1.8101562937 -2.0904930864 -3.3047947699
H 0.9478494502 -1.4607385982 -1.0705665604
