28
CONF21
F 1.9554256864 0.8452487147 1.6539182368
C 1.5412555684 1.7510818210 0.7459372114
F 0.9468786759 2.7813951402 1.3782129533
C 0.5251383105 1.0750845462 -0.2251037237
F 0.4202420227 1.8194411685 -1.3471086905
F 1.0164169018 -0.1481754995 -0.5645603670
C -0.9062748584 0.8889213673 0.3901497128
F -0.7763915393 0.4902898496 1.6750613617
F -1.5426691004 2.0796165304 0.3540407881
C -1.7756162399 -0.1718632398 -0.3727292511
F -1.3644054426 -1.4085401575 -0.0103806891
F -1.5884082203 -0.0187491189 -1.7036948488
C -3.3080073079 -0.0430571149 -0.0733694591
F -3.8032720939 0.9971394627 -0.7754836539
F -3.4911540833 0.1821722862 1.2479897788
C -4.1373747630 -1.3129532800 -0.4562445235
F -3.8910812516 -2.3195033919 0.3882408165
F -3.8413460135 -1.7023346349 -1.7047962001
F -5.4403735188 -1.0112912147 -0.3936720021
S 3.1153741065 2.4645408210 -0.1159623125
O 4.0627054588 2.5995364114 0.9854168701
O 2.6561230560 3.5761045902 -0.9391125109
N 3.6838028188 1.2840585021 -1.1355271828
C 4.2822277512 0.0560426481 -0.5933121684
H 3.5380351168 -0.6765347849 -0.2614930403
H 4.9025200558 -0.3863266739 -1.3771548079
H 4.9273078984 0.3252172317 0.2446868342
H 3.1080406335 1.1879262861 -1.9653319552
