63
CONF66
C 2.2035086377 1.1542318781 -1.3447709603
C 1.0599118160 2.1546741799 -1.2032345404
N 0.3599028040 1.9522221929 0.0667286070
C 1.2679882134 2.2057859275 1.1874929117
C 2.4250610039 1.2112871660 1.1715511607
C 3.1649028112 1.2952682473 -0.1639441775
N 4.2716014209 0.3415919674 -0.2409739708
C 4.2149387950 -1.0496231430 -0.2030161653
C 3.1612554504 -1.9477226419 -0.0797919460
C 3.4661232619 -3.3121624865 -0.0768833285
C 4.7809643875 -3.7669230691 -0.1930025178
C 5.8440334057 -2.8688311944 -0.3175986400
C 5.5405327692 -1.5175294706 -0.3206372525
N 6.3494018554 -0.4012847701 -0.4265275535
C 5.5947722290 0.7565962598 -0.3815701554
O 6.0050507260 1.9135368244 -0.4509610277
C -0.8568447667 2.7654598294 0.1431591310
C -1.7731575958 2.3706274725 1.3069112348
C -1.9742848206 0.8591174670 1.4423162942
C -2.4428231346 0.1691978263 0.1471342705
C -2.3945184619 -1.3388965994 0.3286357964
C -1.2403039620 -2.0335232148 -0.0462588378
C -1.1204539365 -3.4055671211 0.1597622997
C -2.1819494681 -4.0693796719 0.7498317488
C -3.3441465930 -3.4244056903 1.1366562942
C -3.4402464304 -2.0516012446 0.9202626551
F -2.0815747367 -5.4116748543 0.9529991006
C -3.7824970297 0.6540361131 -0.3708124421
C -4.0032526939 0.6841706116 -1.7522198913
C -5.2219277725 1.0904850594 -2.2872926985
C -6.2225334195 1.4718962929 -1.4097676375
C -6.0523262264 1.4640883330 -0.0372028976
C -4.8225420885 1.0530622388 0.4736182996
F -7.4175371063 1.8789550769 -1.9177633116
H 2.7427685008 1.3300911024 -2.2821597805
H 1.7863899100 0.1418930650 -1.3810153871
H 0.3460522304 2.0143737461 -2.0231832387
H 1.4576627340 3.1877652538 -1.2844128643
H 1.6634789041 3.2424342990 1.1509213324
H 0.7195561175 2.1012080155 2.1285528373
H 2.0280669603 0.2024822387 1.3289545741
H 3.1179577563 1.4310556423 1.9912376278
H 3.6412081908 2.2813821458 -0.2281329107
H 2.1336963394 -1.6185772910 0.0115487820
H 2.6570710761 -4.0289513287 0.0188933478
H 4.9838718817 -4.8327581452 -0.1868798825
H 6.8693009596 -3.2115771830 -0.4084231305
H 7.3523363879 -0.3957084275 -0.5241550458
H -1.3992194600 2.6262612585 -0.8009773060
H -0.6225430304 3.8461681493 0.2138679961
H -1.3816729533 2.7584343716 2.2545313807
H -2.7365811640 2.8704765415 1.1495870659
H -1.0258113099 0.3913041890 1.7283120999
H -2.6787336638 0.6464630747 2.2556716192
H -1.7000218504 0.4042622071 -0.6230590403
H -0.4179105922 -1.4914419314 -0.5065690673
H -0.2291505563 -3.9497166084 -0.1343761761
H -4.1531150298 -3.9854535842 1.5922911654
H -4.3487604514 -1.5347929848 1.2143632778
H -3.2042463533 0.3835925796 -2.4248800249
H -5.3935587610 1.1177952909 -3.3580305411
H -6.8607393338 1.7770712129 0.6148275369
H -4.6843793862 1.0523348606 1.5498647840
