55
CONF9
C -0.8661240886 0.2372859993 0.9752325294
C -1.7592777777 0.0252287990 2.2014913527
C -3.1811611307 0.4028790984 1.7047226200
C -3.0609473181 0.6733976023 0.1844050525
O -2.7884360995 2.0561606578 -0.0875094241
C -4.2889632055 0.2545221295 -0.6072573646
O -4.9827067932 -0.7070925182 -0.3098100511
C -4.6435405229 1.0619929345 -1.8372185875
O -5.6969633625 0.4580024698 -2.5619278750
C -1.7744782739 -0.1392120653 -0.2190368008
C -2.1046218437 -1.6387550505 -0.2579845667
C -1.0854594831 0.2841952597 -1.5170842807
C 0.3182561007 -0.3383737455 -1.6200302359
C 1.1934613627 -0.0232017183 -0.3982077385
C 0.4986938860 -0.4420753263 0.9223048053
C 1.3434301826 -0.0814713862 2.1457058979
C 2.7775431570 -0.6460846865 2.0427496228
C 3.3476573514 -0.1433912694 0.7580280642
C 4.3078554053 0.8111009839 0.7555290607
C 4.6640975239 1.5922443009 -0.4195455808
O 5.5344746883 2.4675925046 -0.3783985182
C 3.8457929575 1.3383594079 -1.6617300369
C 3.4190457576 -0.1223715568 -1.7377486940
C 2.6457662316 -0.6119818519 -0.4989938996
C 2.6319976826 -2.1537657122 -0.5675133869
H -0.6800443904 1.3170530707 0.8863459188
H -1.7268428596 -1.0207672505 2.5264603373
H -1.4466761654 0.6398560612 3.0495314363
H -3.5710270247 1.2977647827 2.1999220051
H -3.8982478071 -0.4016521131 1.8814712216
H -3.4123841425 2.5846279209 0.4268424145
H -3.7464681262 1.1688345816 -2.4640077486
H -4.9205165514 2.0767424928 -1.5128652283
H -5.9909965361 -0.2934773757 -2.0175034220
H -2.6526894084 -1.9701073961 0.6267588572
H -2.7158237378 -1.8702649470 -1.1357512041
H -1.1945932806 -2.2368326313 -0.3281408496
H -1.6751183503 -0.0174611188 -2.3918218761
H -0.9920931049 1.3750391891 -1.5392032570
H 0.7926241379 0.0488000341 -2.5271246133
H 0.2385792979 -1.4236790266 -1.7496695688
H 1.3047211092 1.0720536420 -0.3476390610
H 0.3523545700 -1.5300383373 0.9240876706
H 0.8699594400 -0.4616383666 3.0575850500
H 1.4010697632 1.0123424297 2.2374857971
H 2.7342425045 -1.7407549756 2.0607186337
H 3.3798273868 -0.3124967714 2.8925889879
H 4.7811576183 1.1064574145 1.6902467524
H 4.4236303798 1.6390816934 -2.5405953844
H 2.9692752558 2.0009913012 -1.6110004408
H 4.3232510262 -0.7398156203 -1.8206923795
H 2.8365782997 -0.3067890416 -2.6441859471
H 1.9611752380 -2.6142873494 0.1594360588
H 3.6410746663 -2.5425955652 -0.3950001072
H 2.3186076156 -2.4721726018 -1.5663180264
