34
CONF44
C -1.8836288489 -1.8277593048 -1.7974995952
C -3.0438624962 -0.9528823285 -1.3850387732
O -2.7356856448 -0.1657762152 -0.1809165210
P -1.7920670550 1.1146144864 -0.2167155163
S -1.8125743932 2.2460550385 -1.7869432783
O -2.0776768906 1.7586922430 1.2055777350
C -2.4404244371 3.1696537533 1.4101215686
C -1.2086112439 3.9876721974 1.7092212812
O -0.3493915682 0.3133262888 0.0607443558
N 0.7070972515 1.1937071086 0.2686343405
C 1.8462660290 0.5801050660 0.3316396898
C 2.9261464974 1.5084490007 0.5250795891
N 3.8163737369 2.2276786473 0.6924966927
C 2.1893296833 -0.8470297172 0.2132714785
C 1.3407591832 -1.8643484890 0.6760693379
C 1.7228801840 -3.1929377036 0.5426532106
C 2.9365837826 -3.5241009122 -0.0566641259
C 3.7858259431 -2.5171198533 -0.5094708427
C 3.4227673489 -1.1850935985 -0.3646250467
H -2.2074722851 -2.4713298204 -2.6217043336
H -1.0339392074 -1.2320606953 -2.1433222882
H -1.5584488699 -2.4622821395 -0.9680692515
H -3.3385411479 -0.2592924763 -2.1785051873
H -3.9101171775 -1.5447103925 -1.0842486196
H -3.1320537691 3.1442051336 2.2547107360
H -2.9676688814 3.5301413784 0.5226151519
H -0.6750728792 3.5853251331 2.5747906848
H -1.5122683863 5.0151856522 1.9340470467
H -0.5325673649 4.0046574037 0.8500069329
H 0.4023589611 -1.6211990001 1.1552869218
H 1.0672033448 -3.9747178258 0.9118569910
H 3.2234673345 -4.5653292003 -0.1629495453
H 4.7349349170 -2.7678049974 -0.9713150798
H 4.0900781749 -0.4036931571 -0.7149241494
