52
CONF47
C -3.3880011592 3.9819474032 1.1010135264
C -1.9935651120 3.4605608811 1.4556395562
C -1.1642801334 4.5494856488 2.1360575303
C -1.2721082612 2.9730304266 0.1801478671
C 0.1136409747 2.3851183275 0.3980499908
C 0.3800239957 1.4926073883 1.4395285196
C 1.6406561846 0.9272547005 1.5938320927
C 2.6376793469 1.2548450603 0.6831832036
C 2.4054943975 2.1335104159 -0.3664067053
C 1.1381804812 2.6932703689 -0.4992870772
Cl 4.2365472522 0.5409798395 0.8682258372
C -2.0569856083 1.9297177998 -0.5912214898
O -2.2720866805 1.9461542023 -1.7808306231
O -2.4444827038 0.9080823507 0.2216874142
C -2.9339058013 -0.2698794221 -0.4775616653
C -3.6809603933 -1.0319049859 0.5211651934
N -4.2668546612 -1.6667708089 1.2870940396
C -1.7789355567 -1.0644629531 -1.0464429650
C -0.7551776677 -1.4747634241 -0.1943196488
C 0.3386175537 -2.1482935499 -0.7248791287
C 0.4133528410 -2.4276667838 -2.0903413756
C -0.6268255331 -2.0274069254 -2.9213888614
C -1.7257233918 -1.3414668560 -2.4099085136
O 1.3553313418 -2.4529488769 0.1535661484
C 2.1314678313 -3.5809998440 -0.0805956310
C 1.5477836754 -4.8178817787 -0.3427408123
C 2.3699101771 -5.9300304323 -0.4972008858
C 3.7541920705 -5.8093302558 -0.3812888355
C 4.3182131286 -4.5653949790 -0.1080833624
C 3.5087386588 -3.4415552613 0.0403679654
H -4.0140998287 3.2035535471 0.6512739273
H -3.3167828277 4.8150893191 0.3920267282
H -3.8982608997 4.3434024282 1.9987783894
H -2.1044112886 2.6144388797 2.1434263028
H -0.1720598539 4.1851806810 2.4179227806
H -1.6704241100 4.8994038203 3.0408241642
H -1.0365063047 5.4069114061 1.4647490741
H -1.1770992639 3.8223406873 -0.5046929502
H -0.3993601270 1.2257284195 2.1451219254
H 1.8407772156 0.2375972348 2.4060177629
H 3.1955181633 2.3802197451 -1.0664934908
H 0.9482233553 3.3813978441 -1.3179949159
H -3.6222249313 0.0301829674 -1.2755381349
H -0.7884096749 -1.2658142081 0.8699822673
H 1.2751397947 -2.9465936230 -2.4952165741
H -0.5693421820 -2.2382509114 -3.9842389323
H -2.5248690679 -1.0112630030 -3.0650345220
H 0.4690759229 -4.9059024236 -0.4225412080
H 1.9224410950 -6.8979477097 -0.7002687375
H 4.3883921550 -6.6815489027 -0.5002921621
H 5.3947476816 -4.4629241528 -0.0143508661
H 3.9295979199 -2.4637472206 0.2494774392
