78
CONF186
C -0.8083593666 0.1838712166 -0.8842352705
C 0.1164313486 0.8509572168 -1.8916981218
O -0.3292111739 0.3052816398 -3.1816166592
C -0.9719205592 -0.8785481796 -2.9992887473
O -1.3547960080 -1.5384734596 -3.9365521417
C -1.0302298010 -1.1785968109 -1.5208451046
C -2.2494781201 -1.8877180150 -0.9248762897
C -3.5797559040 -1.2752077977 -1.3499744059
C -4.1855323798 -1.7232829197 -2.5253918699
C -5.3862968922 -1.1611014228 -2.9629058741
O -6.0533725806 -1.5270258738 -4.0946588515
C -5.4515306070 -2.5421044173 -4.9072715256
C -5.9939702200 -0.1462791838 -2.2142561542
O -7.1737147877 0.3884513860 -2.6486814260
C -5.3881366699 0.2877307142 -1.0307857807
O -6.0838177718 1.2730773965 -0.3823621880
C -5.5428153765 1.7583028232 0.8525600031
C -4.1891500526 -0.2710934357 -0.5942495825
C -2.0856239587 -1.8872796780 0.5897698108
C -2.8610187909 -2.8195742033 1.3111501534
C -2.7737494665 -2.8076353757 2.6803130158
C -1.9573391604 -1.9048189670 3.3550164746
O -2.0619344253 -2.0968789927 4.7070628329
C -2.9766478123 -3.2004548579 4.8869881941
O -3.4276350022 -3.6084306824 3.5757102522
C -1.1985790171 -0.9823543943 2.6821231164
C -1.2652954385 -0.9762751874 1.2698116799
C -0.3624005961 0.0112416205 0.5537170499
O 0.9968876641 -0.5191874272 0.5902161410
C 1.9358658816 0.2740124049 1.2380394050
O 2.3305699863 1.3353676351 0.3547581371
C 3.3087408247 2.1609667501 0.9832203228
C 3.6616702215 3.3146175739 0.0627924065
O 4.6914464835 4.0945594910 0.6984471521
C 5.8503911195 3.3394677166 1.0319303980
O 5.5553110878 2.2150698910 1.8460517590
C 4.5786771988 1.3523983797 1.2424184464
C 4.2799397438 0.1955575476 2.1682299530
O 5.4542728150 -0.6000716209 2.3065331553
C 3.1342301345 -0.6177359242 1.5657479184
O 2.7806262871 -1.6064551056 2.5295763688
C 6.6452095652 2.9448668714 -0.1885571706
C 7.4599302169 1.8572907171 -0.3588524066
C 8.1434614513 1.8614349390 -1.6053603960
C 7.8520053120 2.9584275962 -2.3683700208
S 6.7268059562 4.0054734331 -1.5674941335
H -1.7646516071 0.7223585428 -0.8727802809
H 1.1620634296 0.5685049067 -1.7498451842
H 0.0196638921 1.9356683534 -1.9505153663
H -0.1434773040 -1.8037375896 -1.3242538545
H -2.2450604666 -2.9288696896 -1.2672428528
H -3.7056100092 -2.5043449922 -3.0999335728
H -4.4614004999 -2.2290347776 -5.2592533978
H -6.1203482544 -2.6714852331 -5.7586805436
H -5.3667076479 -3.4875724662 -4.3585797052
H -7.4451167412 1.0587825755 -2.0039306708
H -6.2378056667 2.5226800934 1.2005101132
H -5.4768855618 0.9523135556 1.5926614270
H -4.5521552782 2.2012037108 0.6973364610
H -3.7409836763 0.0516967973 0.3371485584
H -3.5106062780 -3.5166368729 0.7916135922
H -3.8367274969 -2.8655132653 5.4757101425
H -2.4488522728 -4.0342119035 5.3627679141
H -0.5678876777 -0.2769177215 3.2131779364
H -0.3695603406 0.9727911491 1.0810101604
H 1.5236318631 0.7148763732 2.1644428712
H 2.9251786092 2.5554907802 1.9388087332
H 2.8152769318 3.9885078329 -0.0873696859
H 3.9979319023 2.9272282486 -0.9098507317
H 6.4384696658 4.0062665050 1.6716584764
H 4.9555620431 0.9635320982 0.2839633571
H 3.9615256787 0.5882037440 3.1483254980
H 5.2273269735 -1.3470877172 2.8761987692
H 3.4804058753 -1.0818220606 0.6288656384
H 2.1238470411 -2.1883815860 2.1240804096
H 7.5609119260 1.0794863734 0.3889931590
H 8.8225532119 1.0796501779 -1.9249277964
H 8.2193265986 3.2120050118 -3.3540096903
