25
CONF10
C -1.3696312891 1.9414659320 -0.5858243201
Si -1.3936934530 0.2397319869 0.1973657350
C -2.5248799828 0.2127409797 1.6862728519
C -1.9272749644 -1.0489138294 -1.0527888912
O 0.1290136870 -0.1393451319 0.7537745030
Si 1.6830810528 -0.0771710045 0.2262245405
C 2.6987655432 -1.2103565756 1.3002252877
C 1.8124155815 -0.5302850017 -1.5799287998
O 2.1424805943 1.5116221285 0.4520053398
H -2.3703750693 2.2151699455 -0.9395684614
H -0.6884660895 1.9747045349 -1.4437402027
H -1.0456356072 2.6999090041 0.1355086247
H -2.5223764423 -0.7748340019 2.1609820077
H -2.2093580332 0.9509690096 2.4318558437
H -3.5550933179 0.4450162397 1.3939682386
H -2.9554330733 -0.8598437498 -1.3825164105
H -1.8913885423 -2.0538883755 -0.6172857749
H -1.2817343603 -1.0373368843 -1.9377326123
H 3.7597960926 -1.1531605337 1.0326001820
H 2.3769755720 -2.2512605406 1.1845386336
H 2.5987312220 -0.9360066313 2.3561213954
H 1.2068831659 0.1396870561 -2.2002330917
H 2.8519973812 -0.4603078805 -1.9202706077
H 1.4705906300 -1.5572461954 -1.7503440836
H 3.0046094957 1.7589396143 0.0987899824
