35
CONF16
C 3.7969084528 -0.7560556373 0.8569995731
C 2.7398065216 -0.2263040605 1.7933829466
O 1.4748060489 -0.2324719931 1.0551847658
C 0.4115400039 0.2197483259 1.7124511681
O 0.4125781489 0.6092139093 2.8614111098
C -0.8642092052 0.2357052247 0.8388629392
C -0.8139614044 1.4185006432 -0.1321852916
C 0.1929989141 2.3804116957 -0.1177130444
C 0.1502111753 3.4744191249 -0.9799080716
C -0.9172245203 3.5948427702 -1.8569865933
C -1.9416572986 2.6532398122 -1.8876888033
C -1.8814083132 1.5711203056 -1.0217121325
Cl -0.9807324453 4.9664470031 -2.9520171362
C -1.0106463979 -1.1003088238 0.1193870881
C -1.7166491392 -2.1404289439 0.7226376978
C -1.8232085805 -3.3810823915 0.1015984351
C -1.2090418257 -3.5717626312 -1.1288547897
C -0.4947485158 -2.5530345794 -1.7486054165
C -0.4008279411 -1.3194905269 -1.1166130804
Cl -1.3408430452 -5.1337002559 -1.9239187307
O -1.9759437680 0.4003134547 1.7099665615
H 3.8880365659 -0.1209818648 -0.0282908239
H 4.7610505767 -0.7699139850 1.3732350343
H 3.5602306323 -1.7746561044 0.5383970731
H 2.6151218630 -0.8520632267 2.6818836431
H 2.9412564942 0.8003735590 2.1150114283
H 1.0313552498 2.2999886539 0.5668435603
H 0.9365091549 4.2200509294 -0.9653807480
H -2.7705026758 2.7666268882 -2.5769143841
H -2.6768840622 0.8326571360 -1.0338308219
H -2.1953783751 -1.9774180331 1.6807470050
H -2.3782359112 -4.1865639924 0.5686007814
H -0.0238381532 -2.7192075141 -2.7105143863
H 0.1532225183 -0.5198491367 -1.5964996247
H -1.6496906476 0.8916337569 2.4810335766
