12
CONF1
Br -3.0427300703 -0.9427450004 0.1305231560
C -1.1888608827 -0.4877119371 0.0541626532
C -0.8344916366 0.8556979804 0.0199616095
C 0.5217152706 1.1547295983 -0.0334768665
Br 1.0535006719 2.9888984469 -0.0842076176
C 1.5075985305 0.1752413981 -0.0528736522
C 1.0891740350 -1.1495700457 -0.0170014739
Br 2.4112002743 -2.5279988523 -0.0423155671
C -0.2511235641 -1.5134428899 0.0366530667
H 2.5577073259 0.4333845471 -0.0944576113
H -0.5521142879 -2.5525691463 0.0640900445
H -1.5834239210 1.6365815381 0.0343025790
