59
CONF3
C -3.0488894381 -1.7605220079 4.0388901151
O -2.8620582974 -1.2252912100 2.7346709291
C -1.5923657077 -0.9675043904 2.3058469598
C -1.4187188924 -0.4221916721 1.0120233770
C -0.0994195638 -0.1848614314 0.6212626125
C 1.0222277722 -0.4413893828 1.4145986493
C 0.8044077388 -0.9702004797 2.6868522751
C -0.4841852345 -1.2324461527 3.1204236593
C 2.3813323349 -0.1647189378 0.9187514159
C 2.7203744938 -0.3715621372 -0.4071377577
C 4.0172581400 -0.1018427711 -0.8908572886
C 5.0094838699 0.3916038304 0.0144059376
C 4.6484072730 0.5949103745 1.3689518171
C 3.3784919534 0.3260982450 1.8058642728
C 6.3048085054 0.6601750448 -0.4657128515
C 6.6273762418 0.4479630362 -1.7919563932
C 5.6476830198 -0.0467353036 -2.6894304399
C 4.3787546265 -0.3136222943 -2.2452386378
C 8.0085490070 0.7528464222 -2.2232976130
O 8.2104941059 0.5090936596 -3.5491280351
O 8.8893166517 1.1744061506 -1.5049686023
C -2.5170453371 -0.0489645861 -0.0020103048
C -2.4079786525 1.4659397315 -0.3244977764
C -3.4015444563 1.8734009942 -1.4214181036
C -4.8320651706 1.5922337542 -0.9480162183
C -4.9718449343 0.0947667620 -0.6522987896
C -4.7071855598 -0.7100517653 -1.9296894161
C -3.2762797661 -0.4319565818 -2.4048609221
C -3.1145728872 1.0671483673 -2.6964410457
C -2.2818378407 -0.8486746233 -1.3122428900
C -3.9735509153 -0.3180116923 0.4417571370
H -2.5711198128 -2.7433180757 4.1444205206
H -4.1281245766 -1.8706688121 4.1570221395
H -2.6668615477 -1.0815547297 4.8124260905
H 0.0762493079 0.2578544786 -0.3526676348
H 1.6425195720 -1.2132850035 3.3320669289
H -0.6234815660 -1.6604154648 4.1044899981
H 1.9847271409 -0.7793183352 -1.0947775504
H 5.3950637267 0.9822620340 2.0561493896
H 3.1116248496 0.5186160670 2.8398913362
H 7.0677839269 1.0386729274 0.2073789411
H 5.9123132490 -0.2104146436 -3.7268299114
H 3.6280191421 -0.6924225941 -2.9327709079
H 9.1355887409 0.7403397085 -3.7224214249
H -2.5945817704 2.0393962853 0.5930294310
H -1.3917538404 1.7120542917 -0.6510672425
H -3.2815403704 2.9445450780 -1.6285564568
H -5.5538080709 1.8969453630 -1.7172412572
H -5.0505185798 2.1766677173 -0.0447363164
H -5.9862823068 -0.1153638460 -0.2895206610
H -5.4272223726 -0.4319800880 -2.7105121074
H -4.8363680588 -1.7824226873 -1.7331289681
H -3.0674330507 -1.0092421726 -3.3147360689
H -2.0955998171 1.2742772945 -3.0498400857
H -3.8034217498 1.3706702022 -3.4954180029
H -2.3767216515 -1.9209144905 -1.0959571831
H -1.2605074340 -0.6866667129 -1.6746427179
H -4.1046432402 -1.3807343386 0.6671974773
H -4.1933239304 0.2363814939 1.3590171736
