36
CONF152
C 2.0997305984 3.7355935651 -3.0953474990
C 0.9625188173 2.9611775936 -2.4171814189
C 1.3154221622 1.5248963839 -2.1892672832
C 1.3715628666 0.9278395241 -0.9986278644
C 1.7181168971 -0.5178530670 -0.7922264175
C 0.4869779087 -1.4047275030 -0.5541922367
C -0.5223339127 -0.9795033763 0.5216743769
C -1.8048686781 -1.7367822941 0.1260485218
C -1.8346109220 -1.6222975843 -1.4002050097
C -0.3699505876 -1.5731179997 -1.8130077209
O 0.0550707525 -1.6489826549 -2.9420725639
C -0.0504513284 -1.2486054089 1.9418121774
C -1.0080842610 -0.7238190768 2.9857483344
O -1.8393317338 0.1361289884 2.8073569332
O -0.7990114432 -1.3262679591 4.1795616237
C -1.6359588140 -0.8470930010 5.2546519165
H 2.9957702514 3.7348175546 -2.4673980656
H 1.8117728512 4.7744085712 -3.2832567988
H 2.3636625226 3.2798318304 -4.0552111477
H 0.0685412514 3.0159418325 -3.0537604884
H 0.7012939191 3.4337213439 -1.4629787806
H 1.5522581681 0.9379945463 -3.0785420309
H 1.1341396275 1.5132077102 -0.1089011298
H 2.4073883891 -0.6213338497 0.0556085658
H 2.2329033009 -0.9051126428 -1.6780637896
H 0.8323437292 -2.4266330131 -0.3146678987
H -0.7214236567 0.0942207168 0.4163993130
H -2.6915563090 -1.3239211456 0.6117777903
H -1.7134811686 -2.7901213253 0.4242355626
H -2.2790129014 -0.6671787488 -1.7130578276
H -2.3690031860 -2.4159523759 -1.9282940479
H 0.1173761731 -2.3187712396 2.1106195466
H 0.9143064512 -0.7560006316 2.1290597735
H -1.4720682900 0.2212150529 5.4176045003
H -1.3400499914 -1.4218198085 6.1319114660
H -2.6899591731 -1.0151011162 5.0191132272
