46
CONF27
C -0.2572660134 2.3475189393 -1.5936680686
C -0.7800855129 1.7241941859 -0.3003154057
C -2.2858355573 1.9032218708 -0.0838562583
C -3.1587220558 1.2549600962 -1.1421686941
O -2.9003444346 -0.1859684310 -1.2202506355
C -3.5734475244 -0.9688459395 -0.3752810955
O -4.4131751638 -0.5951462011 0.4187637743
C -3.2355340152 -2.4484749026 -0.5644633578
C -4.1936069157 -3.0586735494 -1.5769547248
O -1.9127570802 -2.6551817354 -1.0679643510
C -0.8578433349 -2.2832238808 -0.2801208336
C -0.9695646648 -1.8530548430 1.0438262117
C 0.1798916663 -1.4960052098 1.7486945197
C 1.4142135221 -1.5801024205 1.1303276420
C 1.5395207740 -2.0152986163 -0.1845403239
C 0.3987959380 -2.3624306218 -0.8907479933
O 2.5623825965 -1.2863469877 1.8798144601
C 3.2151218242 -0.1248261283 1.6226997110
C 4.4248324625 0.0702120573 2.3045762194
C 5.1794593996 1.2078319762 2.1501864765
C 4.7150811003 2.2050462422 1.2759550584
C 3.5087243583 2.0324293626 0.5853586455
C 2.7666371220 0.8742510665 0.7586109658
C 5.4741746085 3.3906409110 1.0964497707
N 6.0916202679 4.3605037583 0.9464855899
F 4.8483818099 -0.9002659639 3.1388496394
H -0.5160124564 3.4109312427 -1.6499365921
H 0.8328495371 2.2626073299 -1.6520708985
H -0.6707081046 1.8531731856 -2.4786457775
H -0.5369462514 0.6545425832 -0.2807454307
H -0.2613401697 2.1730534046 0.5555339419
H -2.5691564520 1.5099246159 0.8994320123
H -2.5343715681 2.9730947948 -0.0821829758
H -4.2203267920 1.4094537703 -0.9356032839
H -2.9270982506 1.6167074714 -2.1456313617
H -3.3573835889 -2.9386043056 0.4089574597
H -4.0764827242 -2.5758901036 -2.5509462291
H -3.9853135065 -4.1266922503 -1.6757612562
H -5.2229896698 -2.9304706897 -1.2338827546
H -1.9276987799 -1.7839670032 1.5445850334
H 0.1108238872 -1.1540815648 2.7759313231
H 2.5191593331 -2.0756945753 -0.6476952345
H 0.4654313454 -2.7013590824 -1.9191029505
H 6.1096146825 1.3182695781 2.6957035218
H 3.1533343058 2.8063411197 -0.0852907674
H 1.8339603368 0.7416953381 0.2241079806
