15
CONF1
C -0.4974454350 -3.4417474958 0.0203277810
C -0.2953799533 -1.9574583811 -0.0349532374
C -1.4044913092 -1.1002039463 -0.1068585158
Br -3.1379080296 -1.8901509293 -0.1314951515
C -1.2761643113 0.2899266861 -0.1595593282
Br -2.8132132348 1.3950349649 -0.2565861035
C 0.0013068312 0.8628783563 -0.1403220462
Br 0.1988518851 2.7473765037 -0.2079088134
C 1.1293173425 0.0373607335 -0.0699786878
Br 2.8615918329 0.8088524384 -0.0445919190
C 0.9698958111 -1.3534925863 -0.0191539364
Br 2.5230769572 -2.4594122755 0.0741152576
H 0.4465218714 -3.9760512042 0.0801809117
H -1.0373557402 -3.7798701866 -0.8694765514
H -1.1064889517 -3.7048282347 0.8905253612
