45
CONF774
O -0.5232065722 -1.1132415585 -2.9572158270
C -1.5672753361 -0.2614628749 -2.4620178830
C -2.4532806488 -1.0167233643 -1.4838982977
O -1.6538372932 -1.5946885069 -0.4176514792
C -1.5849445800 -0.7033597558 0.6785694781
C -1.8186765171 -1.5245365078 1.9464210085
O -1.6470102289 -0.7438905686 3.1185229663
O -0.3142244145 -0.0394726393 0.7537101250
C 0.8431774078 -0.8338613434 0.5274525187
O 1.3978383469 -0.5784326042 -0.7488010720
C 1.8796622625 0.7748012353 -0.9543189409
C 2.4304705313 0.8406175242 -2.3696457105
O 1.4246030019 0.9404659739 -3.3734603614
C 2.9490456028 1.1008817301 0.0885884841
O 3.3456682183 2.4569857813 -0.1065010498
C 2.3803832084 0.8977156297 1.4860764286
O 3.4374983478 1.1514885280 2.4210505673
C 1.8674698497 -0.5299058575 1.6191096380
O 1.2374631320 -0.7644344353 2.8797875380
C -2.6606000170 0.4022962969 0.4457770597
O -2.1184749567 1.6779947239 0.1384351891
C -3.4618319839 -0.1387468119 -0.7579095476
O -4.5315347486 -0.9877290726 -0.3406565182
H -0.0086361371 -1.3877058746 -2.1788808025
H -1.1443960870 0.6360539367 -1.9906417637
H -2.1634998974 0.0495108895 -3.3253827204
H -2.9390452226 -1.8568529992 -1.9896921259
H -1.1492847148 -2.3979367070 1.9347587164
H -2.8511504575 -1.8877494663 1.9309419456
H -0.6958154238 -0.5482677346 3.1771251576
H 0.5878675815 -1.8972800575 0.5272313964
H 1.0460564492 1.4849024879 -0.8517068707
H 3.0793626735 -0.0342990762 -2.5315834594
H 3.0437178914 1.7415745301 -2.4545998407
H 0.8556980868 0.1488226415 -3.3307433267
H 3.8078939975 0.4214693082 -0.0484783793
H 3.8945892903 2.6954315707 0.6537580395
H 1.5549332059 1.6062101984 1.6435910636
H 3.0482838306 1.4978934091 3.2331516799
H 2.7083858529 -1.2242357696 1.4818207435
H 1.9231040529 -0.8155945499 3.5583184326
H -3.3082151997 0.4785466297 1.3287930167
H -1.1664076544 1.6344703575 0.3179492278
H -3.8227184754 0.6926531701 -1.3774758823
H -5.1591052343 -0.4503783217 0.1603216708
