39
CONF1
C 3.5178678358 1.3587173298 -1.6617426351
C 3.3620247002 0.1704700044 -0.7143557292
C 2.0369518319 0.1695843068 0.0505133389
C 1.9504048317 -0.9613541618 1.0888568720
C 2.8526233068 -0.7335339063 2.2995163486
N 0.9579518835 0.0352332690 -0.9532088131
C -0.3725227745 -0.0753699566 -0.7232474326
C -1.2401780673 -0.8941665349 -1.5137580495
C -2.5954771283 -1.0388538561 -1.1990652637
C -3.1828600765 -0.4002614807 -0.1284501977
C -2.3853644567 0.4602704104 0.6654622468
C -1.0410879801 0.5934491212 0.3385667541
N -0.2840228911 1.6041488231 1.0953605130
O 0.0957527460 2.5943338374 0.4796636081
O -0.1059033375 1.4176774294 2.2932754509
C -3.0225597426 1.2197066232 1.7895616182
C -4.6430683937 -0.5942488578 0.1649538220
N -0.7630890626 -1.6538758131 -2.6372632728
O -1.5038351956 -2.4994040576 -3.1461693974
O 0.3843272968 -1.4386184513 -3.0763327139
H 2.7575207310 1.3503046776 -2.4487033870
H 3.4266091668 2.3034574589 -1.1149003419
H 4.4991929633 1.3401996812 -2.1447013163
H 4.1702036073 0.1836740599 0.0228893361
H 3.4529765350 -0.7768672636 -1.2640272828
H 1.9656582876 1.1360691817 0.5611360334
H 2.1995331414 -1.9081215032 0.5924237037
H 0.9123076183 -1.0474884777 1.4311849183
H 2.6940982704 -1.5180970632 3.0451139017
H 2.6307336420 0.2296129822 2.7727969459
H 3.9122149884 -0.7426289774 2.0289630622
H 1.2385984364 -0.4748427102 -1.7843500668
H -3.1933024612 -1.6817626350 -1.8327966507
H -4.0299860172 1.5303976803 1.5063356860
H -2.4627108920 2.1046895709 2.0901002073
H -3.1183764798 0.5694003619 2.6676415995
H -4.8033973283 -0.8888863629 1.2070930233
H -5.0576813651 -1.3702039107 -0.4812751954
H -5.2121283612 0.3271889644 -0.0027996279
