63
CONF149
C 1.3860596608 0.5907605504 1.9239236836
C 0.9478130991 -0.8434383398 1.6444700110
N 0.7505835941 -1.0620449980 0.2078960176
C 2.0093465293 -0.8436075041 -0.5120259908
C 2.4984567378 0.5904348345 -0.3299059615
C 2.6747074852 0.8905124939 1.1582712649
N 3.1560429800 2.2540248947 1.3969844732
C 4.3640080394 2.5943266279 1.9964731247
C 5.3999906774 1.8208919401 2.5006979425
C 6.4985517865 2.4897429005 3.0497735639
C 6.5561581062 3.8842160032 3.0914079200
C 5.5142850497 4.6654459617 2.5834698309
C 4.4268654510 4.0018131745 2.0397637202
N 3.2580399775 4.4645195278 1.4655335519
C 2.4537310426 3.4095821925 1.0609201083
O 1.3535398480 3.4890723641 0.5197559927
C 0.2147890882 -2.4063433558 -0.0332655049
C -0.2519377572 -2.6340606605 -1.4732654913
C -1.1413004379 -1.5199733923 -2.0316019078
C -2.3647024596 -1.2127101646 -1.1527079685
C -3.1642202074 -0.0188329898 -1.6497667336
C -3.4784255902 0.1648426430 -3.0001488908
C -4.2400188922 1.2517438151 -3.4228919212
C -4.6826225245 2.1540773529 -2.4715165167
C -4.3936874831 2.0173374104 -1.1254263526
C -3.6307028380 0.9227736839 -0.7273213330
F -5.4255279282 3.2195622455 -2.8757853777
C -3.2664466968 -2.4211031886 -0.9545213968
C -3.7613754392 -3.1527517809 -2.0388856496
C -4.5974736606 -4.2488043663 -1.8487771376
C -4.9322499439 -4.6016271796 -0.5520444147
C -4.4683542837 -3.9090329659 0.5512856597
C -3.6316315222 -2.8157396630 0.3347292835
F -5.7489342507 -5.6721431948 -0.3573362155
H 1.5510070020 0.7258105504 2.9987779604
H 0.6012709400 1.2845398960 1.6063917545
H 0.0013015016 -1.0456684082 2.1595655174
H 1.7024812194 -1.5467973490 2.0557156959
H 2.7904376421 -1.5526436826 -0.1642198921
H 1.8521027766 -1.0342197353 -1.5781901232
H 1.7692092259 1.2837050796 -0.7608665536
H 3.4517565103 0.7248445428 -0.8531575103
H 3.4580547779 0.2278900617 1.5453082612
H 5.3696110066 0.7375028832 2.4750368939
H 7.3216132495 1.9075402566 3.4509612328
H 7.4226005610 4.3728746789 3.5245822018
H 5.5523972046 5.7491932089 2.6123481864
H 2.9890666068 5.4279331911 1.3451083249
H -0.6363993149 -2.5419324612 0.6457948333
H 0.9544314914 -3.1878645253 0.2335574509
H 0.6089710125 -2.7630387530 -2.1390957209
H -0.7944915411 -3.5877519082 -1.4923366977
H -0.5600360206 -0.5954925902 -2.1272551191
H -1.4563230181 -1.8000309080 -3.0429580725
H -1.9880468724 -0.9344978678 -0.1628050506
H -3.1270344762 -0.5390995421 -3.7469812302
H -4.4838563394 1.3998426752 -4.4694490100
H -4.7528581396 2.7506706794 -0.4114955976
H -3.3923673075 0.8003288174 0.3257553432
H -3.4954412968 -2.8726912333 -3.0532221105
H -4.9831016837 -4.8209888745 -2.6858014902
H -4.7528439435 -4.2188994954 1.5510813684
H -3.2568666094 -2.2594885346 1.1896886475
