15
CONF2
C -2.8218595220 -1.2261813667 0.0599417865
C -2.1245638567 -0.2846429268 -0.2298807341
C -1.2632393908 0.8389566008 -0.5645560862
C 0.0654903376 0.8333902866 0.2110203926
C 0.9185675780 -0.4017052509 -0.1203119989
C 2.1855878116 -0.4071076993 0.5906779037
C 3.2295562428 -0.3824959251 1.1958940276
H -3.4452131942 -2.0526009434 0.3145196598
H -1.7970636826 1.7734079876 -0.3557292717
H -1.0595735262 0.8274302831 -1.6430436721
H -0.1348017058 0.8633596523 1.2866167645
H 0.6203720722 1.7399114381 -0.0493578942
H 1.1090507601 -0.4363295400 -1.2008974599
H 0.3600195474 -1.3125011384 0.1301583466
H 4.1576709361 -0.3728915583 1.7202582331
