36
CONF38
C -0.6544963655 -1.9390068079 -0.7271377969
C -0.6681889038 -0.8004010557 0.2716041996
C -1.2260383440 -1.1945761958 1.6646746314
C -1.5666419612 0.1671741653 2.3371039294
C -1.1565831468 1.1869341226 1.2553537698
C -1.5366835501 0.4603883106 -0.0634409959
C -3.0349236188 0.1614244053 -0.1929735605
C -1.1244661846 1.2188131491 -1.3292338660
C 0.3845554964 1.1878100973 1.2091345037
C 0.7237155057 -0.1989164511 0.5852700376
O 1.5283428564 -0.1143485940 -0.5965020748
C 2.8803657084 0.2267846343 -0.3086607048
C 3.6742783762 0.2204072670 -1.5897223185
O 3.7639734222 -1.1273646886 -2.0750104885
H -1.6611388337 -2.3530766632 -0.8507507997
H -0.2922709884 -1.6124524661 -1.7059012024
H 0.0005609036 -2.7473196022 -0.3810636506
H -2.1146337062 -1.8221494644 1.5496574615
H -0.4928036438 -1.7765707652 2.2327368942
H -2.6308819915 0.2405777403 2.5790330039
H -1.0086691805 0.3269595834 3.2648925604
H -1.5962824805 2.1811774255 1.3843840211
H -3.4458517057 -0.4060309279 0.6435675436
H -3.5931885399 1.1017794818 -0.2669577495
H -3.2277715439 -0.4072551689 -1.1094793035
H -1.7204012594 2.1350362337 -1.4161103201
H -0.0691768840 1.4879058084 -1.3482462785
H -1.3266784615 0.6093651400 -2.2174907492
H 0.8222736685 1.3223380047 2.2031972136
H 0.7693656146 1.9851542017 0.5661682796
H 1.2556366922 -0.8472060704 1.2995212992
H 3.3096222284 -0.4962698874 0.4055178095
H 2.9480788790 1.2299873794 0.1417746852
H 4.6739590379 0.6282035185 -1.3797835690
H 3.1825647829 0.8689420691 -2.3292878667
H 4.2304789099 -1.1042177383 -2.9189152775
