41
CONF11
C -5.2676232575 -0.7623649052 2.6375191982
C -4.1678836890 -0.5211105669 1.6545255068
C -4.0027809103 -1.3152507477 0.5183172595
C -2.9561140144 -1.0157801628 -0.3462067676
N -2.1320427586 0.0137738299 -0.0880360190
C -2.3619089351 0.7077859730 1.0275448437
N -3.3385947252 0.5003586217 1.9167537449
N -1.5141546361 1.7674311417 1.3428970366
C -0.3855757396 2.2609012116 0.7010923090
O 0.2796626854 3.1548861433 1.2056484391
N -0.1065258963 1.6818136073 -0.5219048680
S 1.3571589134 1.9583230023 -1.3298721609
O 1.4770331893 3.3902207455 -1.6122188640
O 1.3372003539 0.9913949508 -2.4363440677
C 2.6727099643 1.5013652614 -0.1912469969
C 3.3952015259 2.5297777012 0.4015653385
C 4.4911305520 2.2200018665 1.2012366508
C 4.8685803384 0.8937092350 1.3803103357
C 4.1496572296 -0.1295966567 0.7695136404
C 3.0317801516 0.1591236401 -0.0133548928
C 2.2219311577 -0.9814013628 -0.5439025880
O 1.0464815977 -1.1516475610 -0.2930884245
O 2.9773433234 -1.8183055735 -1.2618358869
C 2.2919206749 -2.9968655643 -1.7655879265
C -2.6817239422 -1.7952870252 -1.5898921583
H -4.8449713979 -0.9428453853 3.6311407791
H -5.8994963228 0.1286320140 2.7129075467
H -5.8829512482 -1.6153070858 2.3475354340
H -4.6725099086 -2.1422449402 0.3149773961
H -1.7194628806 2.2332755789 2.2170010145
H -0.6259215102 0.8127618751 -0.7484386685
H 3.1066300088 3.5591111665 0.2278618391
H 5.0531571521 3.0194763555 1.6715843874
H 5.7293824057 0.6501246087 1.9939397315
H 4.4429643113 -1.1644503272 0.9096325839
H 1.9060398364 -3.5879933243 -0.9321771820
H 3.0476203438 -3.5520270841 -2.3185942717
H 1.4724711735 -2.6954285604 -2.4220057322
H -1.6567420858 -2.1798564937 -1.5667943320
H -2.7601009520 -1.1396350635 -2.4636176313
H -3.3789719836 -2.6268506260 -1.7012270676
