61
CONF252
C -4.2909867107 2.2407237916 -2.9401943385
C -4.7020605314 1.0783597697 -2.0371479057
C -3.6380877575 -0.0174672590 -1.9976660583
C -3.9943932350 -1.2175051515 -1.1131626029
C -2.9471979109 -2.3492720669 -1.2117667343
C -1.9596745210 -2.0888673991 -0.0368887874
N -2.5215104443 -0.9486949806 0.6970753483
C -3.9548548689 -0.9014081184 0.3833966375
C -2.2195111200 -0.9707183526 2.1242711978
C -0.5493420508 -1.8125893799 -0.5426436981
O 0.1938088492 -2.7461427616 -0.9033109722
N -0.1993528457 -0.5229786122 -0.5786171682
C 1.0566126264 -0.0156405767 -1.0917776351
C 2.0809073585 0.2844371547 0.0267447064
C 3.0012565637 -0.8981143619 0.3399741825
C 3.9445265339 -0.5318240814 1.4911707278
C 3.1497035495 0.0197858147 2.6860885107
C 2.1710584472 1.1263236437 2.2638157973
O 1.3488275318 0.7015724306 1.1880489298
S 3.0148177640 2.7528438409 1.9503954919
C 1.6114668132 3.8540551299 2.3798815617
O 2.4216752666 -1.0278404448 3.3289668721
O 4.8539127696 0.4399594555 0.9755877452
O 2.3027259828 -2.0717386886 0.7570894594
C 0.8213209003 1.2108861183 -2.0010141583
C 0.1762868155 2.3960073638 -1.3082175411
O -0.0212790964 0.8644881099 -3.1076420347
H -3.3570948923 2.6934303951 -2.5874494547
H -4.1258468312 1.8981516491 -3.9677687185
H -5.0569261751 3.0222406751 -2.9636696068
H -4.8897985831 1.4559419613 -1.0243618759
H -5.6496698387 0.6493225867 -2.3898108727
H -2.6852342326 0.4120900066 -1.6632290288
H -3.4680505387 -0.3798440052 -3.0207912528
H -4.9845622426 -1.5893556749 -1.4013254943
H -3.4202850916 -3.3247565747 -1.0742644058
H -2.4410179272 -2.3591329990 -2.1815219678
H -1.8835305297 -2.9902277303 0.5935042162
H -4.5187071788 -1.6674741840 0.9491117828
H -4.3662688212 0.0802530130 0.6424037173
H -1.1338609918 -0.9781388639 2.2761989921
H -2.6470515836 -1.8557159269 2.6297858950
H -2.6220308695 -0.0704596585 2.6000234832
H -0.8766956813 0.1078941913 -0.1607731190
H 1.4850386534 -0.8029771769 -1.7260072962
H 2.7292041799 1.1098350721 -0.3068508326
H 3.6077787172 -1.1002979700 -0.5566734002
H 4.4733805332 -1.4400067936 1.8142921835
H 3.8439686828 0.4254501028 3.4311145668
H 1.4849961924 1.3035885225 3.0977942332
H 1.3641954239 3.7671322530 3.4409216816
H 1.9297545694 4.8769119839 2.1648627205
H 0.7367199315 3.6174191304 1.7692824055
H 2.0205201716 -1.5605270174 2.6194951145
H 5.4835479755 0.6615041962 1.6735290122
H 1.6717486592 -2.3521399027 0.0585810814
H 1.8148424455 1.5088011762 -2.3705162333
H -0.8288585071 2.1510087104 -0.9485982374
H 0.7839912353 2.7219772670 -0.4608477247
H 0.0876017132 3.2259375036 -2.0145293866
H 0.4179656899 0.1714247283 -3.6176371611
