36
CONF32
C 1.9496715996 3.0193232686 0.3627442833
C 2.2855590645 2.5151608109 -1.0485250329
C 1.1486799501 1.7441306334 -1.6446016809
C 1.1859561116 0.4524350673 -1.9781762374
C 0.0212085546 -0.3244421634 -2.5051067798
C -0.4491420937 -1.4291697330 -1.5394970064
C -0.9508054375 -0.9562833248 -0.1624993201
C -2.0229624044 -1.9949079860 0.2272989604
C -2.7158501219 -2.3324378139 -1.0927955547
C -1.6233621096 -2.2034099745 -2.1321236052
O -1.6710480150 -2.6280078306 -3.2718213992
C 0.1524587826 -0.8201417409 0.8777293029
C -0.2926799040 -0.1260788503 2.1379324235
O -1.2876584698 0.5622851639 2.2548692671
O 0.5897596369 -0.3247339786 3.1370890446
C 0.3006775389 0.3679246276 4.3775320656
H 2.7736858627 3.6102387929 0.7745827553
H 1.7588047685 2.1788870510 1.0389018507
H 1.0538150476 3.6491910779 0.3477120811
H 3.1829906879 1.8862202533 -1.0187515886
H 2.5184840363 3.3800066646 -1.6846466676
H 0.2110148672 2.2908761989 -1.7694044213
H 2.1144183045 -0.1056250346 -1.8367679903
H 0.2818910072 -0.8042178584 -3.4571366302
H -0.8195110489 0.3539965345 -2.6973733196
H 0.3635156245 -2.1620646320 -1.4045315151
H -1.4357890932 0.0203888020 -0.2957710422
H -2.7077023716 -1.6190751028 0.9909834064
H -1.5284530304 -2.8899657791 0.6252344508
H -3.4698745081 -1.5708483215 -1.3424467295
H -3.2060409666 -3.3081130896 -1.1402723546
H 0.5761075356 -1.7983378601 1.1321314640
H 0.9798092364 -0.2180961388 0.4805748013
H 0.2787713632 1.4475231121 4.2100507239
H 1.1125514064 0.1014082899 5.0530018349
H -0.6589511315 0.0359602502 4.7808037641
