42
CONF15
C -2.8456972561 -1.5159002860 1.7304696936
C -2.4155921125 -0.4293023833 0.8063417241
C -3.2062705203 0.3133746463 -0.0185435630
C -2.3715506830 1.2441376303 -0.7744839080
C -1.0219714675 1.0540651923 -0.3893866309
C -1.0099709244 -0.0365598380 0.6049313807
C 0.0087901529 -0.6254387207 1.2770844803
C 1.4466888955 -0.4778035333 1.0823522162
C 2.0218542138 -0.4285046598 -0.1969313265
C 3.3964646760 -0.3234289161 -0.3583947851
C 4.2081904845 -0.2816289333 0.7675402124
C 3.6704581768 -0.3351205596 2.0498083740
C 2.2968241593 -0.4566396398 2.2010063363
S 6.0068428243 -0.0842366154 0.5218768378
O 6.2249087147 0.1513739705 -0.9588607130
C 6.4257864233 -1.8601966002 0.8226129449
C -0.0445521861 1.9154839121 -0.8695559282
C -0.3922526686 2.9182351189 -1.7780698755
C -1.7147780377 3.0371084083 -2.1733893830
C -2.7320123553 2.2258106753 -1.6868029719
F -2.0370579372 4.0003350568 -3.0667668510
C -4.6946028060 0.2131873672 -0.1712656581
C -5.0270936347 -0.8389329447 -1.2087888710
O -5.3188590835 -1.9854645039 -0.9715679221
O -4.9126874050 -0.3437791093 -2.4678895642
H -2.4101011866 -2.4777770426 1.4359884256
H -2.5277475543 -1.3149251529 2.7606849018
H -3.9297462251 -1.6407981531 1.7233163609
H -0.2709244708 -1.3148121363 2.0729559156
H 1.3778612670 -0.4944683165 -1.0677468590
H 3.8551055093 -0.2758632146 -1.3419436734
H 4.3139551473 -0.2829102278 2.9241902272
H 1.8657581452 -0.5087688510 3.1966253724
H 6.1411450508 -2.1398262731 1.8406608048
H 5.8888830082 -2.4606398133 0.0840241579
H 7.5058126742 -1.9540134677 0.6868109865
H 0.9873912352 1.8311232843 -0.5507881956
H 0.3490138250 3.6003094319 -2.1775682270
H -3.7528029635 2.3756242029 -2.0194242311
H -5.1069387518 1.1782636628 -0.4811742030
H -5.1667354197 -0.0898856687 0.7643277324
H -5.0817892404 -1.0808065070 -3.0762140417
