49
CONF75
C 0.1743026956 0.0798503227 4.4471254020
C -0.0440980484 1.1468077967 3.5772686692
C -0.4658602616 0.9167466762 2.2720723931
C -0.6806834060 -0.3957175300 1.8519122900
C -0.4804727799 -1.4706164253 2.7143493538
C -0.0385118461 -1.2258996692 4.0111162068
N -1.1010099583 -0.6673779915 0.5159235036
C -0.2841314715 -1.2795548010 -0.4190669610
O 0.6652797561 -1.9957488582 -0.1543502413
C -0.7382464452 -0.8186254117 -1.7882135295
C -1.8298251579 0.1898110475 -1.4990117681
O -2.5175466861 0.7924266899 -2.3050289724
N -1.9546107519 0.2735909868 -0.1246968111
C -3.1292526775 0.7022216128 0.5533935080
C -3.8056002878 -0.1641025616 1.4129308562
C -4.9544653349 0.2829920839 2.0565067384
C -5.4311358087 1.5739828502 1.8363281457
C -4.7468726682 2.4272833590 0.9737297019
C -3.5845107879 2.0020170596 0.3381420868
C 0.4277977388 -0.2732521329 -2.6249202193
C 1.0667648044 0.9403061058 -1.9621933862
S 2.5819620048 1.5229136311 -2.8573649009
O 3.1098975431 2.6857138644 -2.0106357328
C 3.6175973132 0.0746209455 -2.4858335438
C 4.1568717433 -0.0725618615 -1.2116527214
C 4.9484569868 -1.1844667860 -0.9431086477
C 5.1953677354 -2.1268358667 -1.9422701386
C 4.6575439111 -1.9590332243 -3.2158079820
C 3.8668846052 -0.8462841273 -3.4981703810
H 0.5053915167 0.2667795999 5.4634287896
H 0.1217576296 2.1660118496 3.9111772166
H -0.6244467594 1.7440664929 1.5885513349
H -0.6737028512 -2.4805563980 2.3708210507
H 0.1238395730 -2.0601672974 4.6858447673
H -1.1999215266 -1.6594321836 -2.3223090470
H -3.4401225066 -1.1723587567 1.5746839939
H -5.4821671092 -0.3864925557 2.7281521425
H -6.3293504128 1.9152076220 2.3404658040
H -5.1071575398 3.4369592288 0.8049864887
H -3.0294204412 2.6672783750 -0.3127396281
H 1.1551263029 -1.0830780276 -2.7378945761
H 0.0512342210 -0.0144354222 -3.6188792977
H 0.3993316730 1.8095766181 -1.9720816782
H 1.3913034011 0.7448314668 -0.9325195559
H 3.9617459142 0.6726484372 -0.4462362231
H 5.3738426221 -1.3161478125 0.0467543200
H 5.8143663446 -2.9919172695 -1.7268742233
H 4.8579689216 -2.6883632293 -3.9940593676
H 3.4484875618 -0.7016174007 -4.4900841379
