65
CONF516
C -2.3741088504 5.1511436595 0.8792572938
C -2.2987199897 4.6107428958 -0.5469997978
C -2.3459332765 3.0789235400 -0.6087305115
C -2.3132934730 2.5684505536 -2.0572413955
C -1.1622323143 2.4916834158 0.1295167661
O -0.0050134414 2.8123681658 -0.0671436749
O -1.5395641260 1.5434576845 1.0097696292
C -0.4793909559 0.8562028007 1.7467833708
C -0.2011996194 1.5935043181 3.0448844344
C 0.9470564922 0.9146194054 3.8078059116
C 0.7955221876 -0.5778502242 3.7893775787
C -0.0513771457 -1.2557720837 2.9913617461
C -0.9680010885 -0.5585621320 2.0045721324
C -1.1142824842 -1.4028737026 0.7213429746
C -1.7517815117 -2.7526997119 1.1110846762
C -0.9429236989 -3.4043016184 2.2009721151
C -0.1539095221 -2.7062022870 3.0358482114
C -1.9739398243 -3.6892081737 -0.0796062208
C 0.2304385680 -1.5635576240 -0.0255095321
C 0.1825628797 -0.9562662607 -1.4285282056
C 1.5152680821 -1.0240636364 -2.1477962450
C 2.0217465559 -2.4437323835 -2.3833182010
C 3.0673896062 -2.5184977396 -3.5040900064
C 3.5483408765 -1.1128468532 -3.8853093914
C 2.3576249157 -0.2841050288 -4.2807265795
O 2.2621453942 0.3666113688 -5.3011596480
O 1.3116068723 -0.3322365152 -3.4294435411
O 2.4284957757 -3.1382198589 -4.6338379272
C 2.3287590411 1.3321523317 3.2722797130
H -1.5203728966 4.8122962747 1.4772853093
H -2.3699265957 6.2451081991 0.8861184632
H -3.2890568139 4.8124697905 1.3773646613
H -3.1385745613 4.9943778454 -1.1382287736
H -1.3790523307 4.9532197461 -1.0360109319
H -3.2606964399 2.7253904479 -0.1207119135
H -3.1721954146 2.9658966194 -2.6059100144
H -1.3978712979 2.9006138999 -2.5566684845
H -2.3542259736 1.4753525168 -2.0977026300
H 0.4141035656 0.8507751199 1.1159772107
H 0.0508424093 2.6382915436 2.8339683445
H -1.1140408176 1.5818426088 3.6530632018
H 0.8975010046 1.2441822125 4.8553025527
H 1.4320518597 -1.1408718786 4.4723232852
H -1.9666997722 -0.4870159404 2.4639030960
H -1.8200353032 -0.8814061369 0.0623845654
H -2.7481881750 -2.5223913308 1.5228031150
H -1.0045968833 -4.4869800394 2.2975264367
H 0.4337999461 -3.2225814957 3.7926638401
H -2.5046906249 -4.5912777386 0.2417233744
H -2.5745582698 -3.1961507177 -0.8510604715
H -1.0286128170 -4.0051219782 -0.5322807833
H 1.0421215287 -1.0921833881 0.5440724387
H 0.4980397746 -2.6224178052 -0.0874032631
H -0.5723552348 -1.4744119223 -2.0346840763
H -0.1207967878 0.0963241547 -1.3628590399
H 2.2635502844 -0.4434801395 -1.5913765966
H 1.1840068928 -3.0999772811 -2.6429035800
H 2.4502244433 -2.8108141124 -1.4464519996
H 3.9292589618 -3.1207331935 -3.1908900431
H 4.2537276991 -1.1405746321 -4.7184216455
H 4.0507065856 -0.6510912356 -3.0253171170
H 3.0842081284 -3.2153818022 -5.3394982287
H 2.4331453170 1.0762932549 2.2126077234
H 3.1270425307 0.8215385739 3.8202593488
H 2.4709292480 2.4120246432 3.3836167748
