48
CONF33
C -1.5332908363 -3.2002204056 -0.3269393115
O -1.5468533979 -2.3888633277 0.8549356080
N -1.7536567985 -1.0767606046 0.4816898778
C -1.6467969472 -0.2570531202 1.4732645822
C -1.3512923202 -0.6407346297 2.8760816451
C -2.2631291446 -1.3848936473 3.6236651420
C -1.9981123391 -1.7101338570 4.9484552435
C -0.8081561249 -1.2993222600 5.5413501200
C 0.1238976604 -0.5745542227 4.8066560471
C -0.1558947851 -0.2612022025 3.4886946279
O 0.7662220775 0.5251535741 2.7937920428
C 1.2582603850 0.0161191525 1.6412932180
C 1.5689145557 0.9062343886 0.6194615214
C 2.0275975910 0.3592473124 -0.5729462448
N 2.2139911257 -0.9448041854 -0.7229409208
C 1.9130835081 -1.7031061118 0.3327571394
N 1.4438694079 -1.2934016196 1.5068469511
O 2.2842122409 1.2186838950 -1.5920232779
C 2.4073412367 0.6806839102 -2.8674363921
C 3.6408163365 0.7475942954 -3.4959290623
C 3.7738444241 0.3009350368 -4.8057089892
C 2.6709345497 -0.2133370021 -5.4798016176
C 1.4313501695 -0.2768984208 -4.8519626773
C 1.2966635376 0.1767018453 -3.5451765415
Cl -0.2511566521 0.1218493817 -2.7465304562
F 1.3618818496 2.2239537188 0.7489036527
C -1.8397736431 1.1638531185 1.1484303238
N -1.9173917691 1.9789624446 2.1482083374
O -2.1271033547 3.3285027730 1.8699433885
C -2.6415660401 3.5952707022 0.5571953659
C -1.8146312079 2.8552843755 -0.4637842309
O -1.8994483952 1.4470368276 -0.1752736901
H -1.3655184636 -4.2191968665 0.0273077734
H -2.4914358336 -3.1337597828 -0.8533362460
H -0.7218742252 -2.8909340333 -0.9954411940
H -3.1931137507 -1.6916605847 3.1573529383
H -2.7237307269 -2.2796253659 5.5190448386
H -0.5982929421 -1.5484781406 6.5761612038
H 1.0647735772 -0.2521966776 5.2377464304
H 2.0701015028 -2.7744613719 0.2190422080
H 4.4824642160 1.1485829635 -2.9422164719
H 4.7399331411 0.3523883863 -5.2955562699
H 2.7687766162 -0.5655990226 -6.5009007372
H 0.5633442041 -0.6699129922 -5.3686610713
H -3.6926166779 3.2773265740 0.5021140954
H -2.5758549971 4.6790620399 0.4305317552
H -2.1965865348 2.9805442666 -1.4798060116
H -0.7649961163 3.1671395522 -0.4198293570
