29
CONF2
C 2.7311398513 1.4943371376 1.0398470942
C 3.6984702554 0.7748781821 0.3494231363
C 3.2838480478 -0.2588875454 -0.4866713611
C 1.9381092165 -0.5612268585 -0.6332957600
C 0.9652838540 0.1694171123 0.0654507708
C 1.3767335921 1.2095124420 0.9117984155
N -0.3569980247 -0.2264565997 -0.1571910278
C -1.5417369950 0.2306131105 0.3379400029
C -2.7656696492 -0.3891369105 -0.0851914999
C -3.9577118457 0.1071071083 0.4441612477
C -3.9407323327 1.1594224610 1.3437909373
C -2.7007192950 1.6885679456 1.6881801869
N -1.5402541796 1.2503900798 1.2108760761
C -2.7824527267 -1.5033432320 -1.0362189251
O -1.8002973610 -2.0152353385 -1.5589298155
O -4.0305461887 -1.9558692546 -1.3148489056
C 4.2858924368 -1.0376727625 -1.2896754836
F 3.9687322300 -2.3536428827 -1.3584406319
F 4.3562076411 -0.5898832559 -2.5710732621
F 5.5328969624 -0.9514258612 -0.7755486413
H 3.0342972073 2.3005014656 1.6998995228
H 4.7509829652 1.0044225189 0.4602942358
H 1.6367116690 -1.3732512684 -1.2885195964
H 0.6406925147 1.7783658564 1.4579371589
H -0.4807468227 -1.0010012256 -0.8068174436
H -4.8941135232 -0.3443233445 0.1398614812
H -4.8542130768 1.5594656041 1.7664846894
H -2.6357009710 2.5173286407 2.3924218590
H -3.9181051395 -2.6829736263 -1.9459441593
