33
CONF20
O -2.3920375574 3.4867212261 -2.0345401034
C -2.2176399867 2.2939158051 -1.4172122838
C -2.7213278483 1.1723292788 -2.0778577468
C -2.5696032518 -0.0729782471 -1.4875493867
O -3.0695750812 -1.1536254936 -2.1072978474
C -1.9108614384 -0.2153897003 -0.2325568147
C -1.8403528313 -1.4880470595 0.4303062390
O -2.2982082485 -2.5365280832 -0.0685424663
C -1.2312090618 -1.4814090328 1.8085135523
C -0.1741485646 -0.3980438167 1.9299698262
O -0.7752264880 0.8968907041 1.5903746885
C -1.4033247309 0.9516370511 0.3902642169
C -1.5523041858 2.2003632219 -0.1885055373
C 1.0678959681 -0.6029946573 1.0881060285
C 1.3164958558 -1.7645286411 0.3595585446
C 2.4831720370 -1.8933421994 -0.3946008356
C 3.4092087744 -0.8622208276 -0.4345221883
O 4.5429862085 -1.0006100978 -1.1788291826
C 3.1640905335 0.3127399428 0.2971611536
O 4.1289828103 1.2788836006 0.2025831041
C 2.0091714537 0.4346940117 1.0517595380
H -2.0151705502 4.1954270807 -1.4945117154
H -3.2279707470 1.2741001633 -3.0302709895
H -2.8883215000 -1.9259922777 -1.5017401451
H -2.0386606657 -1.2673568596 2.5217443593
H -0.8327123078 -2.4681390953 2.0546502780
H 0.1078390391 -0.2670280793 2.9786278468
H -1.1450167077 3.0789896146 0.3006152301
H 0.6153554517 -2.5908217645 0.3666816746
H 2.6799302137 -2.7966394765 -0.9629919681
H 5.0718444070 -0.1941795903 -1.0917189647
H 3.8731326535 2.0529735023 0.7210124451
H 1.8335672571 1.3502090980 1.6113192387
