50
CONF284
C 0.7106091289 0.4177821069 0.1541267656
S -0.3028947210 0.4452679894 1.6742011440
C 1.0583386996 -0.2891340458 2.6738475069
C 1.6339266452 -1.5743868018 2.1323250077
C 2.2287302338 -2.4767597333 3.1615348056
S 3.6065736125 -1.6430131188 4.1044993321
C 4.7993072802 -1.5726063538 2.8318724946
N 4.8329776301 -2.2591617455 1.6928687079
N 5.9641741728 -1.8547354039 1.0633247834
N 6.6076131915 -0.9780031407 1.7612890366
N 5.8866919199 -0.7720614690 2.8850778805
C 6.2986482101 0.1629897205 3.9222362294
C 1.6647595405 -1.8589671496 0.8095581227
N 1.1650486859 -0.9483812095 -0.1248259693
C 0.3289980833 -1.1233582510 -1.2260707554
O 0.0286170438 -2.0912564442 -1.8772064115
C -0.0809347297 0.3652766075 -1.1941177139
N -1.4873696138 0.6202128293 -1.2067205969
C -2.0050320339 1.7648710283 -1.7199968648
O -1.3422133523 2.6517065565 -2.2441428524
C -3.5120546587 1.8753210322 -1.6069623476
N -4.0758394415 2.3336633393 -0.5406617997
O -3.1271189877 2.6322916508 0.4381009485
C -3.7948185843 3.1114268454 1.6167077560
C -4.3118886478 1.5015550222 -2.7581080784
C -3.7680208448 0.9942199919 -3.9097995510
S -5.0214561266 0.6466664468 -5.0582437757
C -6.2081764605 1.2231310810 -3.8603962776
N -7.5302158354 1.2823833024 -4.1698415634
N -5.6879785416 1.6271941442 -2.7351811276
C 2.2283274492 -3.1156891367 0.2316136271
O 2.8518407515 -2.8742321402 -0.9334294299
O 2.1296925365 -4.2160711258 0.7325428763
H 1.5265345088 1.1426893830 0.2181957914
H 1.8461755604 0.4639157738 2.7911892433
H 0.6378200739 -0.4724364304 3.6679269658
H 1.4986798614 -2.6983726624 3.9473956858
H 2.6123268142 -3.4095714539 2.7567282056
H 6.5564632863 -0.3815636672 4.8345857637
H 5.4819551342 0.8609513178 4.1253582139
H 7.1694072642 0.7061074363 3.5558762378
H 0.4059503482 0.9649019242 -1.9683840505
H -2.1136445579 -0.0379244092 -0.7627324886
H -4.3611683461 4.0215895822 1.3947931445
H -2.9958937008 3.3302264155 2.3273450568
H -4.4590118736 2.3417108937 2.0228638602
H -2.7288059429 0.8091376952 -4.1452216762
H -8.1544052268 1.3885612977 -3.3825498121
H -7.8722880148 0.6834866889 -4.9054907269
H 3.1810420624 -3.7215521041 -1.2792776381
