39
CONF20
C -2.9219899854 3.7720318143 -0.5706807539
N -2.9853316429 2.3168379363 -0.5111582500
C -1.9497576783 1.4563095385 -0.4683516727
C -2.4852780953 0.1742535670 -0.3920428272
C -3.8857051528 0.3936423334 -0.3964800351
N -4.1734787233 1.6937151672 -0.4805235189
C -5.0353708895 -0.5507374324 -0.3719806922
F -4.8704657512 -1.5524963164 -1.3052444859
F -5.1531504868 -1.1765665242 0.8544335335
C -1.7740792828 -1.1108478767 -0.2619148722
O -2.2960233141 -2.0993812132 0.2516013322
N -0.4885904880 -1.1008406416 -0.7413640759
C 0.4604881455 -2.1333604615 -0.5807898969
C 1.7959974025 -1.7937458442 -0.2833910199
C 2.7540926854 -2.8102694626 -0.2173988196
C 2.3624137944 -4.1212573981 -0.4074399699
C 1.0542617909 -4.4777824720 -0.6833616209
C 0.1041851256 -3.4688267145 -0.7833726985
F 3.3011290679 -5.0975061464 -0.3126564201
C 2.2155388312 -0.3940937994 -0.0427437550
C 1.5370824155 0.4010249111 0.8863809945
C 1.9374155072 1.7110528226 1.1161176905
C 3.0310635212 2.2426028029 0.4288813613
C 3.7203867585 1.4519163310 -0.4851741044
C 3.3146711887 0.1454683154 -0.7191121710
Cl 3.5502898814 3.8865706109 0.6935063614
Cl 1.0491062884 2.6688517328 2.2746630386
H -3.4021316272 4.1971630635 0.3139258691
H -3.4306941290 4.1242420538 -1.4711391135
H -1.8729861462 4.0681749283 -0.5992271626
H -0.9303043184 1.8166573400 -0.4712602778
H -5.9804492324 -0.0384545518 -0.5783520629
H 0.7883047388 -5.5178898323 -0.8354062896
H 0.6974679041 0.0006460664 1.4436575989
H 4.5674055630 1.8686126940 -1.0184587343
H 3.7882230387 -2.5803652668 0.0152677982
H -0.9180923643 -3.7148346147 -1.0382106385
H 3.8496163114 -0.4549471382 -1.4474052133
H -0.1382581293 -0.2332684866 -1.1206658125
