46
CONF158
C -1.2556346514 -1.2113143330 2.1621071427
C -2.4283384825 -1.7608777221 1.3841890245
C -3.8334195032 -1.2842996965 1.6618835423
C -3.1387436298 -0.8940545701 0.3444670187
C -2.6892684094 0.4822826105 0.0765245528
O -2.4768469389 1.3617650728 0.8884566848
O -2.5049674630 0.6503774428 -1.2606243349
C -1.9150526059 1.9115835494 -1.6531296296
C -0.4567941313 1.9990049868 -1.2816096917
C 0.3161502952 0.8471837642 -1.1483951425
C 1.6643393761 0.9575430798 -0.8254445902
C 2.2655210630 2.2008720783 -0.6427347282
C 1.4870767736 3.3443783909 -0.7928432387
C 0.1332003798 3.2512326585 -1.1042874030
O 2.3444265571 -0.2291971415 -0.6202832582
C 3.6748662242 -0.3200165393 -0.9960050970
C 4.5243752823 -1.0158638472 -0.1420271783
C 5.8534454735 -1.2051060291 -0.5118477788
C 6.3292500043 -0.6971661063 -1.7185836833
C 5.4635874504 -0.0038501879 -2.5634699803
C 4.1305680821 0.1859588379 -2.2116449267
C -4.1295317826 -0.2974214891 2.7019649665
C -5.2999618003 -0.1832116795 3.3300748441
Cl -5.5651162733 0.9913398393 4.5949691740
Cl -6.7023022751 -1.1631240005 2.9881691408
C -2.2741536381 -3.2182646992 1.0074406905
H -0.3337545103 -1.3706411421 1.5920938299
H -1.3389381640 -0.1455311883 2.3738816036
H -1.1644962090 -1.7509812736 3.1108050567
H -4.6078415396 -2.0289950512 1.5060254275
H -3.4897987749 -1.4227063806 -0.5352426292
H -2.4752864989 2.7397264200 -1.2098744198
H -2.0412849937 1.9369081925 -2.7394061770
H -0.1173589615 -0.1388658272 -1.2792518274
H 3.3153831721 2.2712063065 -0.3802985669
H 1.9406446190 4.3192183643 -0.6433735875
H -0.4674719238 4.1510336452 -1.1985822161
H 4.1382065068 -1.4015136199 0.7957585732
H 6.5192918850 -1.7475800128 0.1520266442
H 7.3666131508 -0.8423640950 -2.0012782194
H 5.8235488607 0.3871072711 -3.5101119369
H 3.4514322349 0.7173994538 -2.8700035044
H -3.3529688290 0.3943171847 3.0049117475
H -2.1539799011 -3.8259272668 1.9110772750
H -1.3842223275 -3.3556235866 0.3835344917
H -3.1443918818 -3.5859416692 0.4570159065
