45
CONF1038
O -0.7200010971 -0.4311776138 -2.9139044140
C -2.0075222676 -0.9975056007 -2.6722240518
C -2.4609493031 -0.8825111863 -1.2343688205
O -1.5244029001 -1.6114436624 -0.3869523792
C -1.3762679169 -0.9673056750 0.8686503085
C -1.5070709497 -2.0114298326 1.9694737215
O -2.7571987540 -2.6880608098 1.9094460150
O -0.0930487584 -0.3307535877 1.0195493396
C 1.0045980861 -0.8719708627 0.3180169929
O 1.2387142930 -0.1580499963 -0.8925676934
C 1.5267578010 1.2521657287 -0.7058838587
C 1.6207664759 1.8891494969 -2.0826235049
O 0.3491336613 2.1731684543 -2.6597504107
C 2.8151818865 1.3840661898 0.1045796565
O 3.0658958077 2.7731869105 0.3096627123
C 2.6447320683 0.6621257418 1.4350436690
O 3.8976755525 0.7415537517 2.1322784829
C 2.2545710102 -0.7917116157 1.1930722234
O 1.9963321233 -1.4904401146 2.4076857840
C -2.4237167199 0.1622427525 0.8790674460
O -2.1268354629 1.2315268916 1.7479716663
C -2.5242936529 0.5102099535 -0.6108454043
O -3.6635297875 1.2625514495 -0.9859317467
H -0.1200233161 -0.7004360390 -2.1943997580
H -2.7251204019 -0.4664810824 -3.3065943296
H -2.0146920415 -2.0586861725 -2.9603640922
H -3.4525965334 -1.3574010036 -1.1528860939
H -1.4534465927 -1.5072457772 2.9389439749
H -0.6603164546 -2.7094979461 1.8927567408
H -2.7845799112 -3.1605000790 1.0665952519
H 0.8133593603 -1.9058699743 0.0160971785
H 0.7046198386 1.7267318779 -0.1511166220
H 2.2267059334 1.2397855144 -2.7338724424
H 2.1370383465 2.8472815820 -1.9798554448
H -0.1086585083 1.3278527193 -2.8274504211
H 3.6456256135 0.9178719800 -0.4529635118
H 3.7821208021 2.8303491207 0.9573960921
H 1.8573795986 1.1649586736 2.0139233152
H 3.7157722268 0.7897728917 3.0781727793
H 3.0641288571 -1.2814749159 0.6316333001
H 2.8470786376 -1.6501440119 2.8359532513
H -3.3816191218 -0.2597357380 1.2097436482
H -1.2168814237 1.5070533310 1.5642599876
H -1.6519549444 1.1047289810 -0.9094535393
H -4.4534601766 0.7914993899 -0.6859648028
