30
CONF16
O -1.9471486771 2.5274936904 -2.0635977804
C -2.3359573278 1.8800186113 -1.1136937856
O -2.4399452675 2.3881285528 0.1299988615
C -2.8184804256 0.4460813720 -1.1837217315
C -2.3953099761 -0.4154928564 -0.0235389874
C -1.0284600387 -0.6416740895 0.2305753131
N -0.0827603512 -0.0346417187 -0.6225387105
C 1.2912515955 -0.1007781405 -0.3736322759
C 2.1710648500 -0.8036349962 -1.2154342657
Cl 1.5068739231 -1.6849869309 -2.5826271468
C 3.5433187905 -0.8334960762 -1.0104161112
C 4.0779279670 -0.1676414553 0.0860726500
C 3.2491979641 0.5393367909 0.9503290251
C 1.8842244355 0.5812855699 0.7040731535
Cl 0.8751826752 1.5485839125 1.7597690570
C -0.6445571450 -1.4337648663 1.3155788310
C -1.6060671653 -1.9913879367 2.1517759473
C -2.9595893736 -1.7790559155 1.9073205069
C -3.3400124085 -0.9974005110 0.8186997364
H -3.9136748932 0.4913210946 -1.2169039651
H -2.4916697505 0.0432197515 -2.1481146410
H 4.1798060975 -1.3860148118 -1.6916200998
H 3.6590554348 1.0757289443 1.7981380017
H 0.4084002471 -1.6198610415 1.5012033845
H -1.2900671951 -2.6033272684 2.9909762462
H -3.7126231762 -2.2158299861 2.5547754981
H -4.3936778263 -0.8213950775 0.6199129715
H -2.1410107423 3.3134800589 0.1054091061
H 5.1471051252 -0.1939926120 0.2648726129
H -0.3127693491 -0.1075752296 -1.6056982700
