47
CONF129
C -7.8792112473 -1.2284987432 0.8765045244
O -7.1112135010 -0.2255326381 0.1742464304
P -5.5202079465 -0.3905913337 0.0476393967
S -4.8326399087 -2.1406148876 -0.3891674273
O -5.1646664548 0.8215287830 -0.9417972209
C -5.2290227418 0.6173250087 -2.3722023465
O -5.0558994396 0.2457839278 1.4685006742
C -3.7165564553 0.2010717750 1.8607162891
C -2.8334448644 1.1667477985 1.3908861939
C -1.5180706049 1.1506719469 1.8316476310
C -1.0869739929 0.1584900382 2.7167189533
C -1.9864431386 -0.8054685626 3.1734978945
C -3.3114766346 -0.7804262674 2.7512867117
S 0.5853920297 0.1401133969 3.3458406679
C 1.5557139122 0.2593558548 1.8495565750
C 2.7460516722 0.9880862266 1.8989318077
C 3.5750369523 1.0492783014 0.7842986185
C 3.1900121828 0.3997239723 -0.3791332373
C 2.0045692177 -0.3209842933 -0.4493698606
C 1.1915552091 -0.4003843321 0.6727524773
O 3.9820108018 0.5211590792 -1.5249916103
P 5.1549053188 -0.5612877298 -1.8350180586
S 4.7074200181 -2.4277302321 -1.8938129141
O 6.2277237136 -0.0954427767 -0.7156949632
C 7.3510221766 -0.9517177241 -0.4098882650
O 5.7027441978 0.0099254473 -3.2284814847
C 6.0507315754 1.4100457990 -3.3578658529
H -8.9249983745 -0.9524610865 0.7381472461
H -7.6291535172 -1.2182591694 1.9421231420
H -7.6862194110 -2.2191073291 0.4543946382
H -4.8483357013 1.5359533706 -2.8196648049
H -4.6076659658 -0.2348913511 -2.6615999809
H -6.2647288336 0.4513732159 -2.6841766189
H -3.1865064312 1.9246738553 0.7009756480
H -0.8204613862 1.9060502792 1.4861783082
H -1.6459356743 -1.5841225000 3.8474381098
H -4.0218124900 -1.5285327240 3.0834714515
H 3.0210757549 1.5136860152 2.8074514463
H 4.5040744492 1.6070408992 0.8052491298
H 1.7412913003 -0.8294112219 -1.3696518866
H 0.2729628429 -0.9755940985 0.6327147680
H 8.0087239972 -1.0486958713 -1.2799039802
H 7.8835278374 -0.4632523512 0.4072939642
H 6.9996248648 -1.9398407235 -0.1007278641
H 5.1473080302 2.0252447450 -3.3408389770
H 6.7278335902 1.7165300441 -2.5546498326
H 6.5503319537 1.5029883942 -4.3227795146
