47
CONF99
C 4.4683195743 -3.8736003391 2.6796788808
C 4.6400371388 -2.4584988359 2.1120044378
C 5.5552982411 -2.4728175490 0.8803153509
C 3.3023859609 -1.8214012142 1.7965345894
C 2.4394607260 -2.3865862454 0.8494896584
C 1.2119954944 -1.8037684455 0.5538953540
C 0.8498551354 -0.6410422126 1.2181529967
C 1.6722968283 -0.0517068747 2.1639783396
C 2.8984452538 -0.6520540013 2.4450260552
O -0.4176583277 -0.0736017752 0.9610336203
P -0.5628763869 1.0117096716 -0.2103276904
O 0.1380396775 0.7187995830 -1.4794253898
O -0.1362544886 2.3629350394 0.5430581855
C 0.1462754445 3.5164637655 -0.2171999563
C -0.8907714704 4.3767620143 -0.5477489643
C -0.5888702376 5.5367675366 -1.2583995874
C 0.7264860831 5.8179013787 -1.6215443780
C 1.7496212567 4.9378532103 -1.2731019354
C 1.4641018794 3.7732280794 -0.5648188790
O -2.1564520295 1.1793918232 -0.2925187351
C -2.9082553303 0.2878379323 -1.0847108598
C -3.4148658598 -0.8635013090 -0.4992775751
C -4.2012724699 -1.7118244250 -1.2759535744
C -4.4679751498 -1.4014464917 -2.6076950785
C -3.9488115591 -0.2364704146 -3.1698838197
C -3.1600140339 0.6213927981 -2.4072714803
H 4.0167766453 -4.5390905907 1.9359351258
H 3.8282286051 -3.8681494511 3.5675466817
H 5.4418155652 -4.2907972072 2.9575858241
H 5.1175595634 -1.8395947564 2.8816934208
H 5.1325570928 -3.1004046807 0.0880974484
H 5.6930960575 -1.4635632151 0.4798097716
H 6.5379841860 -2.8782769870 1.1428514754
H 2.7246568345 -3.2968410173 0.3305387000
H 0.5411937514 -2.2388531710 -0.1795942397
H 1.3580072198 0.8542347628 2.6712020409
H 3.5509796056 -0.1989094419 3.1861193086
H -1.9075623786 4.1426558739 -0.2512261415
H -1.3874658368 6.2214167386 -1.5252516329
H 0.9548353381 6.7233341285 -2.1740916883
H 2.7755239430 5.1545953436 -1.5528968567
H 2.2430394097 3.0720639900 -0.2842977425
H -3.2006829646 -1.0839205343 0.5408991492
H -4.6070651611 -2.6159911207 -0.8337417330
H -5.0821960418 -2.0656206452 -3.2067804600
H -4.1564576535 0.0092607745 -4.2063517160
H -2.7450852877 1.5333468253 -2.8233355744
