60
CONF24
C -2.7010612986 0.1996891142 4.5934643630
C -2.7353706570 1.2363352786 3.4740190348
C -3.0216034180 0.6090748578 2.1107357572
C -2.8302131512 1.6217962443 0.9658377958
C -3.4820686101 1.2287042724 -0.3050615588
C -3.0499260149 1.0120043282 -1.5917178921
C -4.2384175565 0.8279661678 -2.3982364163
C -4.4966403255 0.5659108003 -3.7464743049
C -5.8217017268 0.4045354178 -4.1389744662
C -6.8766308453 0.4966146681 -3.2187327243
C -6.6391843397 0.7525555581 -1.8694709675
C -5.3145424525 0.9126958733 -1.5080203900
O -4.8536195320 1.1743024534 -0.2392385122
C -1.6895911338 1.0689084519 -2.1424424813
O -1.5024038616 1.5700712775 -3.2530252635
C -0.5580080363 0.4580172739 -1.3984585174
C -0.7561837350 -0.5636602922 -0.4657489616
C 0.3353042843 -1.1746161910 0.1250930533
C 1.6588025836 -0.7923187268 -0.1608896685
C 1.8254159136 0.1796278117 -1.1684199794
C 0.7486416263 0.8064603669 -1.7617610152
I 3.7549038839 0.6586175065 -1.8995411818
O 2.6734956025 -1.4978792126 0.3854674203
C 3.6095759162 -0.8656353875 1.3105646215
C 2.9102383929 -0.2238649347 2.4929942655
N 2.1119853491 0.9283805110 2.0840000716
C 0.9059484397 1.1124394723 2.8985895605
C 1.1372855553 1.4881034786 4.3664105240
C 2.9300232967 2.1385000462 1.9362459195
C 2.1937282361 3.2770209286 1.2411108446
I -0.0058328641 -2.7651698020 1.4802962915
H -2.5215047535 0.6684321460 5.5660329678
H -3.6495758445 -0.3458094145 4.6516385815
H -1.9043704256 -0.5330208635 4.4197315914
H -1.7778577743 1.7691638995 3.4339841328
H -3.5009217408 1.9938891147 3.6855517291
H -4.0467873809 0.2214565096 2.0965356123
H -2.3546040888 -0.2479447840 1.9527669417
H -3.2707560902 2.5823493144 1.2688717474
H -1.7658913328 1.7990169846 0.7875518136
H -3.6873331645 0.4966783672 -4.4642574966
H -6.0468549876 0.2050182484 -5.1817364352
H -7.8978312194 0.3667833153 -3.5617269892
H -7.4419735637 0.8234752088 -1.1441165285
H -1.7599390818 -0.9020474761 -0.2392467157
H 0.8954699838 1.5545750129 -2.5318619172
H 4.2391117897 -1.6950108927 1.6413834901
H 4.2341190476 -0.1477783773 0.7718692466
H 3.6918120959 0.0338285517 3.2339248144
H 2.2575451393 -0.9686841235 2.9622543203
H 0.2854296037 1.8753783403 2.4154721490
H 0.3340083301 0.1768322970 2.8470553716
H 1.6215000417 2.4645513162 4.4632642542
H 0.1794399237 1.5359605090 4.8945566425
H 1.7607884175 0.7433612972 4.8722047478
H 3.8059542037 1.8728038503 1.3334818878
H 3.3227870836 2.4848215888 2.9111268232
H 1.3892090023 3.6871564501 1.8585091129
H 1.7629798328 2.9349923553 0.2938383228
H 2.8938445017 4.0901978176 1.0272890291
