21
CONF18
F 0.5208497145 -1.9872895414 0.4230851804
C 0.1448791416 -0.6832484712 0.3877068047
F -0.0354265289 -0.2582411212 1.6659589885
C 1.3019789217 0.1515065618 -0.2407219443
F 0.9962353745 1.4749747557 -0.0595283661
F 1.2734882055 -0.0791158170 -1.5976879973
C 2.6563507692 -0.1663597295 0.3456641425
C 3.7737181108 0.7462769121 -0.1698378240
O 4.1600937674 0.4705528347 -1.5181664096
C -1.2252025898 -0.6094375452 -0.3648975470
F -1.1686568606 -1.4088618412 -1.4546868907
F -1.4689670449 0.6599155413 -0.7671207023
C -2.4536767762 -1.0661941459 0.4878431415
F -3.5213490789 -1.1793516612 -0.3159485628
F -2.7346823771 -0.1704870855 1.4414666386
F -2.2163566967 -2.2556538802 1.0591760213
H 2.5791050195 -0.0514694539 1.4330002782
H 2.8976331758 -1.2109461759 0.1312074905
H 4.6578351620 0.5560417244 0.4444837603
H 3.4985846832 1.8009522544 -0.0449047539
H 3.4937865722 0.8412662743 -2.1091126535
