44
CONF6
C -5.4297359516 0.2463332497 1.0687051909
C -3.9826732610 0.1771846749 1.5159467774
C -3.4170867123 -1.2381531346 1.5707880981
O -2.9544645270 -1.4332201143 0.2209934108
C -2.3893568327 -0.1935215300 -0.1619638936
O -3.1246855214 0.8149977871 0.5264961943
C -2.6400427081 -0.0247219183 -1.6720031596
N -1.8388871529 -0.9483414573 -2.4555094701
C -2.0615286255 -2.2549540708 -2.7017557171
N -1.0397474256 -2.7765615833 -3.3707534212
C -0.1942414385 -1.7152097656 -3.5010435017
N -0.6322621887 -0.5856162748 -2.9601973456
C -0.9006410504 -0.1431949075 0.1928244346
C -0.2448933239 -1.3286164859 0.5384492320
C 1.1140353885 -1.3738090350 0.8103549271
C 1.8553292387 -0.2003559954 0.7372325109
C 1.2461692788 1.0051337603 0.4009384237
C -0.1152710363 1.0110784624 0.1254511011
Cl -0.7975082328 2.5686167359 -0.3414538807
O 3.1871830124 -0.2802693644 1.0763527557
C 4.0953519874 0.5766616932 0.4762839097
C 5.0594597182 1.1511547868 1.2960660311
C 6.0486640196 1.9527800616 0.7352693272
C 6.0435035224 2.1676966696 -0.6373653809
C 5.0827118087 1.5941939795 -1.4631684153
C 4.1015017667 0.7859319348 -0.9005253094
Cl 7.2871463479 3.1899186155 -1.3513345893
H -5.5737522030 -0.3299098887 0.1491498583
H -5.7223657560 1.2839385158 0.8859676371
H -6.0791458596 -0.1642417232 1.8486962954
H -3.8352741366 0.7074351941 2.4624301570
H -2.5809807266 -1.3172216313 2.2777791378
H -4.1663187614 -2.0028003384 1.7824753818
H -3.6997220266 -0.2147220360 -1.8609887265
H -2.3891636363 0.9904338209 -1.9808373426
H -2.9637167054 -2.7638796139 -2.3892689685
H 0.7601047511 -1.7699793711 -4.0098386151
H -0.8248704568 -2.2432942801 0.5807455352
H 1.6029863797 -2.3054170749 1.0725943333
H 1.8193285635 1.9232135080 0.3511959525
H 5.0360171049 0.9680201628 2.3648658118
H 6.8066601268 2.4064700872 1.3634516921
H 5.1013447950 1.7650723911 -2.5334923095
H 3.3508374466 0.3217456890 -1.5315264719
