68
CONF312
C 1.6578455975 -4.3634343682 -0.8261534600
C 2.4511863934 -3.2273105108 -1.4678924983
C 1.7482481394 -1.8472865139 -1.4559394715
C 0.4683704134 -1.8711980979 -2.2953967103
C 1.5027760030 -1.4810775821 0.0061646794
O 0.1999146592 -1.3565173709 0.3121128730
C -0.1387237561 -1.0423292461 1.7031956649
C -0.2031405858 -2.3579377348 2.4625065429
C -0.5511382266 -2.1355041392 3.9323898654
C -1.7212990442 -1.2076032420 4.0368015855
C -2.1546487679 -0.4077554570 3.0449669644
C -3.3160150096 0.4480236192 3.2350514694
C -3.6600278507 1.4110718292 2.3674108231
C -2.8424132642 1.7548919356 1.1574206649
C -1.4106677248 1.1805651322 1.2815700997
C -1.4818396686 -0.3160923221 1.6837993157
C -0.5578175791 1.4643420244 0.0380933016
C -0.4831073263 2.9569356134 -0.2913560689
C 0.4515255415 3.3161389502 -1.4346193236
C 0.1314784722 2.6455664952 -2.7593878288
C 1.1403138784 3.0336885865 -3.8479507991
C 2.3781945652 3.7162030159 -3.2339796678
C 2.7971038238 3.0869512731 -1.9354307661
O 1.8083228406 2.9152273102 -1.0311324284
O 3.9265043090 2.7436466351 -1.6501317038
O 1.5033574254 1.8234572293 -4.5276722848
C -3.5832391197 1.3376976476 -0.1259645087
C -0.8260409383 -3.4639732798 4.6448593023
O 2.4000110613 -1.3220634643 0.8139910319
C 2.7135313624 -0.7956618566 -2.0292016630
H 2.2369019059 -5.2914893459 -0.8516113507
H 1.4294421464 -4.1466919761 0.2237180367
H 0.7128744490 -4.5483372559 -1.3452623610
H 3.4145135140 -3.1205051603 -0.9564980476
H 2.6700073532 -3.4673141689 -2.5159402152
H -0.0037816125 -0.8845897120 -2.3137485432
H 0.7254645212 -2.1449041208 -3.3241622018
H -0.2643295262 -2.5886224853 -1.9203077133
H 0.6471670177 -0.3990487514 2.1160804852
H 0.7551540231 -2.8794350816 2.3720433744
H -0.9751956956 -2.9872009839 1.9988321428
H 0.3134021670 -1.6645373771 4.4289794475
H -2.2556528357 -1.1893786016 4.9870758205
H -3.9165337181 0.2749251082 4.1261188967
H -4.5628119148 1.9952765713 2.5362850168
H -2.7581932578 2.8503225248 1.1366137310
H -0.9373626749 1.7040651385 2.1273330763
H -2.1207227184 -0.8404021907 0.9564238117
H -0.9479258204 0.8974931559 -0.8144022535
H 0.4615426601 1.1065216752 0.2110438077
H -1.4675430446 3.3501614001 -0.5694978650
H -0.1641392962 3.5124873164 0.5998335063
H 0.4566830689 4.4081735963 -1.5494049222
H -0.8910633516 2.8953848848 -3.0572328513
H 0.1843111020 1.5602382878 -2.6250459648
H 0.6883794049 3.7338207524 -4.5623030652
H 3.2198635190 3.7033682919 -3.9288264538
H 2.1309086212 4.7660805665 -3.0272077061
H 2.0549552319 2.0606164494 -5.2845571730
H -3.0815571810 1.7102292062 -1.0243968465
H -4.5998251127 1.7435934491 -0.1172389887
H -3.6617612962 0.2486719547 -0.2022756922
H -1.6873110386 -3.9682079864 4.1927286679
H -1.0436680397 -3.3003304506 5.7051093797
H 0.0402665813 -4.1293388114 4.5708242822
H 2.9492171469 -1.0487226985 -3.0678867706
H 2.2574680243 0.1990902500 -2.0165345632
H 3.6422902757 -0.7601241201 -1.4542660458
