45
CONF30
C -6.0304831986 -1.7780428383 1.2977371163
O -5.4343063872 -0.5059701164 0.9682131418
N -4.1488167349 -0.7102990874 0.5328482932
C -3.5082385763 0.3696707074 0.2026618606
C -3.9343289209 1.7461194448 0.2412748400
C -3.4094853814 2.8768587219 -0.3430230758
C -4.2591327813 3.9551077948 0.0115095312
C -5.2427836940 3.4271002724 0.7939160277
O -5.0694626571 2.0881566165 0.9421638424
C -2.1008771159 0.1043189051 -0.2779784119
O -1.2067228092 0.9447907398 -0.1883588765
N -1.8881857654 -1.1229910590 -0.8138785956
C -0.5896848320 -1.5267764100 -1.2468505419
C 0.5959074689 -1.6038544901 -0.2337742181
N 1.3291177498 -0.6758035130 -1.0946007837
C 0.2993341327 -0.5157273678 -2.0153823431
O 0.2133086633 0.1088229208 -3.0442126971
C 2.7086265927 -0.5051739704 -1.1529364716
C 3.5411027678 -1.3110115977 -0.4580749416
C 3.0490217112 -2.4318249705 0.4188307385
S 1.4688295249 -3.2070589629 -0.1261508978
C 5.0271308525 -1.1098216340 -0.4172549915
O 5.4611317483 -0.9022812687 0.9572443525
C 5.2568463230 0.3611474927 1.4352298562
O 4.8337644305 1.2853832381 0.7551757951
N 5.5637111085 0.4284008693 2.7488106466
C 3.1806327974 0.6586268399 -1.9634964038
O 4.1211979521 0.6341412975 -2.7289924250
O 2.4326280907 1.7477419975 -1.7228825313
H -7.0460167042 -1.5406075002 1.6174992984
H -6.0516297975 -2.4279501217 0.4177327632
H -5.4787566966 -2.2562656052 2.1125311042
H -2.5217074202 2.9184003321 -0.9527276519
H -4.1542381906 4.9911328462 -0.2739241851
H -6.0985150661 3.8474881803 1.3001430851
H -2.6524727541 -1.7823889080 -0.8491218378
H -0.6782060482 -2.4500410122 -1.8277474158
H 0.3938847674 -1.1945266029 0.7601758545
H 3.7893410583 -3.2380066483 0.4296638486
H 2.9333489239 -2.0867193114 1.4534936520
H 5.5370059498 -2.0290667329 -0.7182507850
H 5.3638737775 -0.2837972423 -1.0392036997
H 5.6113756380 1.3387470116 3.1755079974
H 6.0330886137 -0.3395849785 3.2008287479
H 2.7598401904 2.4724041137 -2.2843687969
