29
CONF20
C -1.1405667913 -1.2107601292 -2.7639059142
C -0.0461220524 -0.2820125395 -2.2993140632
O -0.5840094405 0.5179540622 -1.1928910630
P 0.2994888502 1.0179003072 0.0397766743
S 2.2192779665 1.0345856357 -0.1846672527
O -0.4383532808 2.3598970989 0.4787263230
C -0.1749459578 3.5984579079 -0.2613570084
C 0.5721715888 4.5611041864 0.6300103769
O -0.2702291860 0.1721781167 1.3486155543
C -0.0641033214 -1.1541162622 1.5029572435
N 0.3139670087 -1.8825888407 0.4682327969
C 0.5007340146 -3.1812700013 0.6009082916
C 0.3055540979 -3.8435462146 1.8128974074
C -0.0956835756 -3.0872050266 2.9109767178
C -0.2825393486 -1.7235405775 2.7647004856
Cl -0.7755101102 -0.7463918537 4.1109719212
Cl 0.5452573523 -5.5535940929 1.9870520496
Cl 1.0010321030 -4.0494583971 -0.8273171321
H -1.4237183263 -1.9004347003 -1.9643171262
H -2.0241850242 -0.6511538216 -3.0826214311
H -0.7752058925 -1.7968433575 -3.6130656919
H 0.2559949031 0.4220673797 -3.0805169481
H 0.8315502552 -0.8315456467 -1.9524729805
H -1.1604586937 3.9775176016 -0.5444592330
H 0.3910322893 3.3737079100 -1.1720404840
H 0.0072975986 4.7565872327 1.5453739105
H 1.5520184374 4.1561078411 0.8958035269
H 0.7159030256 5.5083613027 0.1004534022
H -0.2556481936 -3.5619654229 3.8715921455
