55
CONF131
C 4.0717810364 -4.2468176802 -2.4463953246
O 4.6944785225 -3.0311708363 -2.0058983387
C 3.9201889454 -2.1321980828 -1.3386725216
C 4.5630463961 -0.9568015613 -0.9326062426
C 3.8551495153 0.0167799367 -0.2469517297
C 2.4960801204 -0.1471209019 0.0481475149
C 1.8720702600 -1.3289681961 -0.3521480927
C 2.5667845352 -2.3193050310 -1.0417682483
C 1.7685706238 0.9641910046 0.7578955580
S 0.8317080071 0.2398417990 2.1970006597
C -0.3967096232 1.4894683783 2.5303647039
C -0.3784035044 2.1512816106 3.7614918829
C -1.3772212966 3.0601444990 4.0909018194
C -2.3893077210 3.3390287979 3.1753566172
C -2.4078207106 2.7019327042 1.9409257415
C -1.4259736883 1.7650628514 1.6114942270
N -1.5061849420 1.0986036261 0.3560651959
C -2.7240432973 0.3248026306 0.0605053933
C -2.6154796577 -1.0687367012 0.6828250087
N -3.8360863091 -1.8543666385 0.4960917289
C -3.9872084913 -2.2754788579 -0.9008686456
C -3.7982282086 -3.0375278860 1.3611956994
C -0.4603463658 1.0161262139 -0.5165561542
O -0.5164616594 0.3885001891 -1.5711816468
C 0.8031424396 1.7853494723 -0.1180491080
O 1.5482438386 2.1427632843 -1.2936948564
C 0.9510349255 3.0503329896 -2.1081110323
C 1.7737998561 3.3024670502 -3.3309825340
O -0.1225871041 3.5551858519 -1.8539512535
H 3.2532645182 -4.0369692878 -3.1444485492
H 3.6942150898 -4.8249052319 -1.5951763047
H 4.8537280884 -4.8106646980 -2.9553530633
H 5.6160335436 -0.8247841003 -1.1598753363
H 4.3638617545 0.9256285191 0.0622730953
H 0.8238121984 -1.4913379857 -0.1248576212
H 2.0459787562 -3.2222748839 -1.3353837606
H 2.5070059719 1.6673391022 1.1553321052
H 0.4233901967 1.9397554812 4.4610510291
H -1.3558547485 3.5587198277 5.0543106179
H -3.1600894420 4.0640360636 3.4152027048
H -3.1840680518 2.9333305676 1.2189257512
H -2.8321072181 0.2810073873 -1.0239268842
H -3.5855406459 0.8510227264 0.4782152216
H -1.7260896843 -1.5843111489 0.2678351608
H -2.4465071063 -0.9466026699 1.7602327639
H -4.8934042642 -2.8809695387 -1.0012310431
H -3.1265035855 -2.8779570299 -1.2497990262
H -4.0895717625 -1.4085130075 -1.5590625920
H -3.7206898207 -2.7301765804 2.4090634628
H -4.7208579950 -3.6133012814 1.2357244763
H -2.9436076345 -3.7013820939 1.1290789355
H 0.5294418031 2.7013224997 0.4135800146
H 1.5841576719 2.4909551610 -4.0426661057
H 1.4761963625 4.2471222866 -3.7852228069
H 2.8397877570 3.3005407116 -3.0962486431
