74
CONF16
C -0.3853166922 -0.9836412524 -0.4362650440
C 0.5986503876 -1.9850509846 -1.0229660316
O -0.0920399080 -3.2741718867 -0.8716000715
C -1.0217112662 -3.1997487635 0.1171783952
O -1.6576636615 -4.1691179656 0.4590252320
C -1.0268804876 -1.7974907763 0.6757752473
C -2.3371928401 -1.1680044931 1.1563623578
C -3.4807749462 -1.3038287278 0.1572546550
C -4.3093543898 -2.4256526789 0.2227208503
C -5.3339082271 -2.5803312782 -0.7079613855
O -6.2110633703 -3.6297916918 -0.7537072531
C -6.0377175584 -4.6771642238 0.2095215863
C -5.5485133960 -1.6224619822 -1.7058847085
O -6.5531106448 -1.7599897537 -2.6212081879
C -4.7254517839 -0.4926841646 -1.7585238410
O -5.0143750943 0.3942857586 -2.7547914262
C -4.1957944202 1.5661834042 -2.8402534751
C -3.6991945228 -0.3356414030 -0.8250764310
C -2.0512799167 0.2911001317 1.4885309841
C -2.9904612505 0.9480464382 2.3112962688
C -2.7852696611 2.2757507346 2.5882514987
C -1.6976964969 2.9731889719 2.0690596755
O -1.7634483904 4.2890964849 2.4533702133
C -2.8043751868 4.3389911564 3.4509197757
O -3.5734524876 3.1237724331 3.3215329853
C -0.7768929941 2.3653273348 1.2560068230
C -0.9564441818 0.9937591422 0.9648992226
C 0.1166479454 0.3359260133 0.1150755909
O 1.2852337139 0.1051100100 0.9557892260
C 2.4405967120 0.7520739309 0.5412683769
O 2.9374555336 0.0821501459 -0.6295432826
C 4.1252270906 0.7112754471 -1.1066179006
C 4.5749744666 0.0623456287 -2.4044016591
O 5.8285369149 0.6502293359 -2.7817864890
C 6.8234016941 0.4723638382 -1.7803915656
C 8.1017288021 1.1007011569 -2.2654019975
O 6.4413394784 1.1131513308 -0.5613294743
C 5.2290477827 0.5381324204 -0.0664970907
C 4.8144893303 1.2262646912 1.2172728936
O 5.7276453382 0.9976526794 2.2923062534
C 3.4644307380 0.6720017997 1.6733148223
O 2.9526908413 1.4241816606 2.7684780640
H -1.1502692317 -0.7600470430 -1.1906735341
H 0.8053193011 -1.8530675245 -2.0855876930
H 1.5312763547 -2.0338216649 -0.4563138511
H -0.3322578633 -1.8300046425 1.5316592463
H -2.6453509791 -1.6745760939 2.0780221964
H -4.1400878855 -3.1707985335 0.9891740718
H -6.8100029792 -5.4138493678 -0.0124390351
H -5.0470272385 -5.1357603474 0.1118336558
H -6.1715603316 -4.2955994330 1.2282181902
H -7.0120416802 -2.5913564105 -2.4289972153
H -4.2786123373 2.1728038973 -1.9303220584
H -3.1454096964 1.3020197345 -3.0130342669
H -4.5770130548 2.1298927868 -3.6922501172
H -3.0805156850 0.5525761099 -0.8446465091
H -3.8513436332 0.4140204570 2.7004087273
H -2.3478758406 4.3718319900 4.4493231750
H -3.4501325797 5.1981226229 3.2590003127
H 0.0611054644 2.9177694606 0.8443899130
H 0.4054841126 1.0099643607 -0.7003378285
H 2.2453766416 1.8101515058 0.2852753868
H 3.9505867108 1.7864787781 -1.2777228000
H 3.8729203451 0.2531734291 -3.2197555258
H 4.6834839349 -1.0245649848 -2.2613148172
H 6.9346761108 -0.6094531613 -1.5816663012
H 8.8826272352 0.9781013377 -1.5116697774
H 7.9438832862 2.1666456563 -2.4514946643
H 8.4221862232 0.6172225921 -3.1908052821
H 5.3781963998 -0.5394705953 0.1211565289
H 4.7090816306 2.3066963179 1.0270773062
H 6.5419157976 1.4784172330 2.0971506276
H 3.5878011313 -0.3887751349 1.9461188849
H 3.6508666486 1.4569677042 3.4366921403
