46
CONF15
C -4.7039026326 0.0282854917 -1.2665469101
N -4.9761759886 0.9241311328 -0.1468090252
C -5.9706640007 1.9632274683 -0.3978127994
C -4.2185768827 0.9882615911 0.9610497891
O -4.3181999942 1.8593382469 1.8348307651
C -3.2448208640 -0.1348689480 1.2099313810
C -1.8626939863 0.0112844803 1.1412895865
N -0.9696998802 -0.8896915402 1.5125076859
C -1.4285575405 -2.0515475637 1.9899048857
C -2.7895995019 -2.3273299154 2.0935168106
C -3.7037253251 -1.3594917814 1.7038055163
S -1.1309611227 1.5618844766 0.5126236888
O -0.5934489042 2.3398468636 1.6376551933
O -2.0739043026 2.1858216104 -0.4200802580
N 0.2458329933 1.0397537450 -0.3252831434
C 0.1457458867 0.0232848160 -1.2636719457
O -0.9063854871 -0.3121950552 -1.7898136786
N 1.3401271854 -0.5891696133 -1.6071608182
C 2.6155941858 -0.4939799378 -1.0544594729
N 2.7983990534 0.3352344200 -0.0194698894
C 4.0353694083 0.3743657452 0.4803531392
C 5.0861120227 -0.3876074016 -0.0324826048
C 4.7611493295 -1.2043255349 -1.1105927442
N 3.5252219709 -1.2683053849 -1.6328457744
O 5.6298396849 -2.0067728851 -1.7390596969
C 6.9929231597 -2.0273434838 -1.2647837113
O 4.3027915642 1.1705578004 1.5174765154
C 3.2158931506 1.9594155653 2.0609519220
H -5.6020192578 -0.5493392139 -1.5094891134
H -3.8923027581 -0.6567311171 -1.0224320385
H -4.4119859204 0.6158978552 -2.1453566606
H -6.2691423670 2.4222638967 0.5444653316
H -5.5611748179 2.7347503185 -1.0623418445
H -6.8417537322 1.5101050364 -0.8796130590
H -0.6831442888 -2.7819980493 2.2927646816
H -3.1238410226 -3.2853415155 2.4755087315
H -4.7718419276 -1.5401530391 1.7767681809
H 1.1434139075 1.0830858932 0.1877238531
H 1.2467242035 -1.2731664154 -2.3472576031
H 6.0719872230 -0.3209446796 0.4038412125
H 7.5107307497 -2.7353281481 -1.9102336825
H 7.0315889687 -2.3691129728 -0.2258580902
H 7.4459082237 -1.0353598685 -1.3566581804
H 2.8263531326 2.6453708573 1.3040486592
H 3.6593711632 2.5160157592 2.8853443104
H 2.4174448461 1.3079218938 2.4266936017
