41
CONF106
C -3.8768941057 0.0914481298 -2.5161072317
C -2.3720729409 0.2810963553 -2.7426612290
C -2.0665030253 0.4790685818 -4.2246586136
N -1.5428315409 -0.8238300677 -2.2381078990
C -1.6672011052 -1.0880815375 -0.8047441677
C -0.4818998487 -1.9284961975 -0.3126865195
O -0.6923975203 -2.3714504832 1.0235581634
C 0.8428467026 -1.1922979508 -0.4380642271
O 0.7512577120 -0.0683041800 0.4494754654
C 1.8942529107 0.5489621889 0.8597916047
C 3.1305564302 0.3908625039 0.2354717598
C 4.2415529307 1.0698813075 0.7321205533
C 4.1234261995 1.9002586377 1.8384724252
C 2.8793045477 2.0538872905 2.4479405980
C 1.7517038131 1.3904349268 1.9772507057
C 0.4092631347 1.5340480203 2.6383851885
C -0.0416190851 0.3480163969 3.4519956814
C 0.6608197620 -0.7570875602 3.6876269157
H -4.1166216490 -0.0193537139 -1.4544990667
H -4.4401229482 0.9496016144 -2.8979107416
H -4.2308601672 -0.8041260788 -3.0416781064
H -2.0481128742 1.1805022514 -2.1981965232
H -0.9967391569 0.6414250406 -4.3802663010
H -2.6164399642 1.3358241277 -4.6251065023
H -2.3669893552 -0.4051066739 -4.8005432582
H -1.7789067963 -1.6664661681 -2.7563227191
H -1.6616462061 -0.1277583834 -0.2729820088
H -2.5896941088 -1.6163531884 -0.5127952924
H -0.4114962126 -2.8358348833 -0.9293817704
H -0.4873184289 -1.6281720879 1.6127616850
H 1.0000780956 -0.8571357558 -1.4708906684
H 1.6622960174 -1.8491375943 -0.1178932826
H 3.2305629404 -0.2443091060 -0.6364748813
H 5.2019005588 0.9449720251 0.2421480213
H 4.9886779856 2.4274889669 2.2251047468
H 2.7788265257 2.6994740336 3.3163786086
H 0.4212863755 2.4155153101 3.2931774167
H -0.3596171871 1.7376175424 1.8804664402
H -1.0394909900 0.4433580476 3.8807049151
H 1.6605833877 -0.8908534283 3.2825558603
H 0.2562796788 -1.5589478319 4.2965842602
