27
CONF7
C -5.1397489831 -0.0417273661 -0.1939049929
C -4.5781934728 -0.6299797250 -1.3255672551
C -3.1968448387 -0.6988581409 -1.4634536899
C -2.3548263509 -0.1840538533 -0.4667225354
C -2.9249348000 0.4119783637 0.6721993067
C -4.3049966887 0.4780369062 0.7992508048
N -0.9731958947 -0.3070643786 -0.7163123892
N -0.2257592772 0.0926333507 0.2338743384
C 1.1311982867 0.0087555023 0.0353261605
C 1.9643959776 0.4426163474 1.1173100034
N 3.3044218252 0.4134604695 1.0528749582
C 3.8827138171 -0.0390877985 -0.0689383778
C 3.1435944646 -0.4906748905 -1.1984864639
C 1.7771668169 -0.4592755587 -1.1268789136
N 5.2331876120 -0.0537653395 -0.0978452657
N 1.4153935881 0.9043582017 2.2593356014
H -6.2180309083 0.0159698563 -0.0848209285
H -5.2182401688 -1.0348184249 -2.1035267111
H -2.7456622952 -1.1527258833 -2.3407576420
H -2.2808302031 0.8203066292 1.4425057008
H -4.7398202958 0.9419284648 1.6799046243
H 3.6632115523 -0.8446039560 -2.0823972085
H 1.1711022059 -0.7918787619 -1.9621919973
H 5.7293708109 -0.3860807275 -0.9065157048
H 2.0102178881 1.1975706861 3.0155398060
H 0.4143774434 0.9342220676 2.3550716249
H 5.7558361083 0.2633865557 0.7019871482
