28
CONF38
C -3.4362532994 -0.3612590134 -1.1830874476
O -2.9030722578 0.8114842244 -0.4960947196
P -1.3327557853 0.9834741696 -0.3467653265
O -0.5006816408 0.9537917821 -1.5686985471
O -1.1755769519 2.3444632614 0.4482594985
C -1.9759612946 2.6297745191 1.6359384910
O -1.0279034729 -0.2168301739 0.7259969365
C 0.2450176341 -0.5570118801 1.1421375393
C 0.4910195243 -0.7670461606 2.4377084718
Cl -0.7063905841 -0.5435636107 3.6759830751
C 1.3071433452 -0.7497252918 0.1350397698
C 2.4758168802 0.0069437810 0.2259140839
C 3.5009199960 -0.1441877329 -0.6993784139
C 3.3618173277 -1.0595103502 -1.7437874623
C 2.2080264524 -1.8309224555 -1.8476777264
C 1.1996924183 -1.6746240809 -0.9111194212
Cl -0.2119622618 -2.6956988565 -1.0431310867
Cl 4.6135506800 -1.2688013281 -2.9324623590
Cl 4.9335724608 0.8317498863 -0.5394018990
H -3.2340650751 -1.2581989612 -0.5926870977
H -2.9932576542 -0.4467901281 -2.1783782705
H -4.5095743112 -0.1935967953 -1.2608707329
H -1.5088377773 3.4954589853 2.1039378026
H -2.9994676437 2.8630839391 1.3362162577
H -1.9594643515 1.7779354407 2.3198282950
H 1.4556379736 -1.1152344691 2.7851742551
H 2.5731022595 0.7379141826 1.0204542467
H 2.1099076053 -2.5530730897 -2.6490483026
