82
CONF5
C -5.5243335756 -0.8330439396 -2.8335461619
C -4.4171860511 0.1847644286 -2.8420440528
C -3.7524915250 0.4819266914 -3.9652918918
C -4.0565402638 0.8441744806 -1.5352349507
C -5.2249344906 1.3364920118 -0.6643543198
C -4.5812837595 1.4924368155 0.7152974628
C -3.6959379666 0.2351933369 0.8682620842
C -3.2444653112 -0.0989292959 -0.5940878570
C -1.7203002361 -0.0276660017 -0.8126531660
C -1.1658362637 1.4226708662 -0.7799022935
C 0.1459584648 1.5684242223 -0.0130090562
C 1.1346519477 0.4885322263 -0.4473666433
C 2.6231570334 0.8333493078 -0.0113435784
C 2.7094659722 1.4961864765 1.3823347037
C 4.1499999348 1.8032258418 1.8042024075
C 5.0609910981 0.5767500999 1.8088008428
C 5.0058615950 -0.2057647033 0.4782244793
C 3.5277246959 -0.4389461834 -0.0047212720
C 2.8812391344 -1.6199521610 0.7797128852
C 1.3827593493 -1.5091597043 1.0556772287
C 0.5929509804 -0.9458942391 -0.1259193958
C -0.9782938294 -0.9712774789 0.1753942658
C -1.3569630699 -0.5779606725 1.6478558861
C -2.4913397514 0.4546550378 1.7917969734
C -1.4808122163 -2.4160981831 -0.0463090717
C 0.8940523751 -1.8222041184 -1.3638018543
C 5.8462713587 0.5796206142 -0.5545529861
C 5.7374136656 -1.5549791041 0.6232159302
O 4.7145109761 -0.2992827955 2.9057160333
C 3.0771719648 1.8524170036 -1.0837767678
C -4.5709307163 -0.9270554845 1.3819591849
O -5.1771212194 -0.6868288205 2.6607335632
H -6.4953919755 -0.3459729713 -2.6844575511
H -5.4073789611 -1.5513229547 -2.0132338642
H -5.5616438180 -1.3837700743 -3.7766803685
H -2.9662311107 1.2329588441 -3.9692770001
H -3.9748313472 -0.0152022269 -4.9060232864
H -3.4370929163 1.7164564321 -1.7685698456
H -5.6634355610 2.2650267662 -1.0450925143
H -6.0236406560 0.5880208592 -0.6248204862
H -3.9520486108 2.3914664051 0.7288609406
H -5.3087934505 1.5848889374 1.5277990380
H -3.5552087777 -1.1263066102 -0.8196382301
H -1.5389560876 -0.4253035674 -1.8197950955
H -0.9934145582 1.7560557963 -1.8116884649
H -1.9038959679 2.1156328461 -0.3645180225
H -0.0236080777 1.5187805173 1.0663884633
H 0.5508916605 2.5673739943 -0.2076417598
H 1.1572030671 0.5458978018 -1.5460273737
H 2.2504621331 0.8501080738 2.1377759644
H 2.1426777817 2.4334209309 1.3872011260
H 4.5868470236 2.5668543066 1.1518231415
H 4.1532956124 2.2408157976 2.8114460106
H 6.1040712832 0.9078263417 1.9512076104
H 3.6218129222 -0.7521244040 -1.0537211855
H 3.0834634636 -2.5443482110 0.2270050690
H 3.3705173715 -1.7287459430 1.7466040830
H 1.2365558106 -0.8766251081 1.9336372025
H 1.0019173666 -2.5009205536 1.3297739741
H -1.6307183136 -1.4922832112 2.1889472803
H -0.4975957687 -0.1741231515 2.1862806700
H -2.8207131595 0.4718542573 2.8394976643
H -2.0931646579 1.4560522227 1.6073425129
H -2.4902486864 -2.5506076966 0.3432861033
H -0.8441827237 -3.1334530175 0.4813255312
H -1.4999381728 -2.6890713772 -1.1052016303
H 0.2372834945 -1.5659018060 -2.2014320327
H 0.7854072313 -2.8900938055 -1.1548684007
H 1.9192865691 -1.6564680801 -1.7005567987
H 5.6301229735 1.6461845543 -0.5836064285
H 5.6852086777 0.1749754811 -1.5590036800
H 6.9095949069 0.4714898655 -0.3149504595
H 5.2789982412 -2.2255346091 1.3483476482
H 6.7713363408 -1.3781074475 0.9403456377
H 5.7661684589 -2.0633855466 -0.3481083918
H 4.7473478491 0.2342154103 3.7094935415
H 3.9153186406 2.4761581635 -0.7771709525
H 2.2564162310 2.5355690897 -1.3240754053
H 3.3593341731 1.3374061357 -2.0082998478
H -5.4020693330 -1.0892462620 0.6869105776
H -3.9856022257 -1.8544714518 1.4189084135
H -4.4971464715 -0.7878760013 3.3369830862
