53
CONF24
C 2.1933683334 -3.5326005930 -0.9909779452
N 1.8076979795 -2.8087482172 0.2230770660
C 1.6677449872 -3.7750755607 1.3263666464
C 1.2071148880 -3.1087433415 2.6150836772
C 2.1857811806 -2.0084579060 3.0134383564
C 2.3500900448 -1.0369768045 1.8491579780
C 2.7867865707 -1.7562447748 0.5680945158
C 3.0067742641 -0.7675374651 -0.5903673382
C 1.7187372190 -0.1639057512 -1.1650142467
N 1.2420829110 0.9959114073 -0.3988138801
C 2.0515937725 2.1473013240 -0.3408608853
C 3.0640753768 2.3890868449 -1.2776690351
C 3.8635622563 3.5247830678 -1.1794910823
C 3.6527425543 4.4564294247 -0.1685746852
C 2.6315412015 4.2433658655 0.7544363788
C 1.8572063376 3.0901977878 0.6806481445
S 0.6454796904 2.7588154610 1.9430025660
C -0.5623880340 1.9324626285 0.9416892831
C -0.1248744749 1.1179571348 -0.1227274871
C -1.0954792825 0.4368134942 -0.8671289418
C -2.4332042456 0.5283686786 -0.4976490758
C -2.8674261445 1.3150469939 0.5606623659
C -1.9122574230 2.0432483862 1.2628777393
S -3.6346496071 -0.4236821608 -1.4348017206
O -4.9659773167 0.1963814184 -1.2482616926
O -3.1140631366 -0.6028033597 -2.8099505265
C -3.6408785190 -2.0357217138 -0.6250978549
H 3.2196051341 -3.9438322180 -0.9319514825
H 2.1343138369 -2.8882322346 -1.8727304082
H 1.5018540815 -4.3671753271 -1.1440916266
H 0.9438093251 -4.5372535019 1.0145907475
H 2.6307177198 -4.2962601774 1.5109712504
H 1.1231815245 -3.8675205212 3.4015267649
H 0.2084852215 -2.6779358829 2.4630316507
H 1.8377338663 -1.4797908729 3.9081167531
H 3.1585548973 -2.4575231270 3.2587731229
H 3.0917101143 -0.2646833092 2.0856665003
H 1.3976439722 -0.5247107479 1.6680011104
H 3.7732244277 -2.2287558335 0.7687891145
H 3.5403364550 -1.2635413578 -1.4072996061
H 3.6765481380 0.0205093956 -0.2314488742
H 0.9441053410 -0.9293386946 -1.1050990618
H 1.8429883332 0.0888590722 -2.2269917467
H 4.6515423133 3.6800992381 -1.9093957950
H 2.4471590632 4.9599769666 1.5488978824
H -0.8230382179 -0.1534876272 -1.7328103923
H -3.9173340298 1.3742782889 0.8216472149
H -2.2142317915 2.6848919656 2.0844344482
H -4.3576998410 -2.6543688904 -1.1723613337
H -2.6339517113 -2.4547792401 -0.6862391503
H -3.9518111218 -1.8991347547 0.4128793442
H 3.2403389364 1.6856811349 -2.0822309889
H 4.2715062592 5.3442573723 -0.0952153943
