31
CONF9
C 5.2824272912 -0.0914360197 1.5297466144
O 3.9744785770 -0.3479120584 0.9580182723
C 3.3489203746 0.7332368792 0.4741081282
O 3.7272907340 1.8751193617 0.5917072531
C 2.0348893883 0.3575316478 -0.1445016165
C 1.9112544881 -0.4410219160 -1.2866045088
C 0.6655902412 -0.7996918602 -1.7873828267
C -0.4852873311 -0.3529817406 -1.1597214727
C -0.3673467164 0.4523083036 -0.0266596502
C 0.8833043398 0.8071613174 0.4805330120
O -1.4415290897 0.9629427350 0.6504656783
C -2.7087373021 0.5346940950 0.3005516149
C -3.2018463285 -0.6917892347 0.7497296570
C -4.5015206231 -1.0815533242 0.4477726652
C -5.2951936514 -0.2216648969 -0.3023029572
C -4.8253357426 1.0073001685 -0.7512174099
C -3.5221853664 1.3778379909 -0.4438504352
Cl -6.9335307922 -0.7061501485 -0.6835665613
Cl -2.1858443308 -1.7405176173 1.6981210428
N 3.1012814636 -0.8527711376 -2.0278079554
O 4.1351515068 -0.2148309238 -1.8404935914
O 2.9954072762 -1.7918814751 -2.8099605506
H 5.6488345036 -1.0638816828 1.8549103545
H 5.1955059237 0.5955148358 2.3745803849
H 5.9377660491 0.3371850174 0.7677462837
H 0.6075847723 -1.4070294357 -2.6822057834
H -1.4591945814 -0.6170248221 -1.5546437260
H 0.9450043821 1.4227104306 1.3710073440
H -4.8828993883 -2.0327923828 0.7977867654
H -5.4637167373 1.6628269409 -1.3308265762
H -3.1205239181 2.3285609580 -0.7775394408
