43
CONF7
C 0.7006444008 4.0638064499 -2.5901195565
C 0.0983317688 3.5372242726 -1.3359342530
N -0.7757776875 4.2677150443 -0.6585069456
N -1.1256579555 3.5149189947 0.4272185174
C -0.4750693996 2.3435008340 0.4616201680
C 0.3654052865 2.2960969522 -0.6710101729
C 1.3613878072 1.3349406755 -1.0926050509
O 1.8271990371 1.3310133701 -2.2338556832
C 1.9153698524 0.3776631021 -0.0768287714
C 2.0558888087 -0.9943201463 -0.3158594545
C 2.6299879129 -1.8454640046 0.6196267033
C 3.0950857601 -1.2960035975 1.8091508983
C 2.9861688625 0.0609273743 2.0864374853
C 2.3861168426 0.8805575102 1.1403197960
Cl 3.8310239506 -2.3590361274 2.9910010420
Cl 1.4105980776 -1.7227256619 -1.7745873191
O -0.7066734584 1.5343042465 1.5107500024
C -0.9911198714 0.1512553784 1.2604073468
C -2.1829481509 -0.0474309724 0.3359231608
O -2.8325502194 0.9131869045 -0.0487131613
C -2.5022886808 -1.4379020117 -0.0698793564
C -1.7603406854 -2.5380322095 0.3835276204
C -2.0955855010 -3.8223461379 -0.0291312604
C -3.1681637006 -4.0196230683 -0.8961689772
C -3.9115733682 -2.9295304546 -1.3505676054
C -3.5821603021 -1.6464347087 -0.9395069488
C -2.1248073801 3.9767435311 1.3758600060
H 0.3703829586 5.0927655463 -2.7501204798
H 1.7932147562 4.0377809453 -2.5390063953
H 0.4086887472 3.4545295356 -3.4504544742
H 2.7037849324 -2.9091114297 0.4289080618
H 3.3565073405 0.4689222490 3.0193374423
H 2.2869296268 1.9425400706 1.3416017405
H -1.2115456650 -0.2813143524 2.2418280679
H -0.9195648423 -2.4084823521 1.0563864253
H -1.5174859551 -4.6697582653 0.3243752332
H -3.4254892047 -5.0235157125 -1.2190707132
H -4.7466262867 -3.0847435928 -2.0260487990
H -4.1510225331 -0.7905875650 -1.2863425505
H -1.6515668005 4.3149113615 2.3028401500
H -2.6634882119 4.8050391549 0.9158167002
H -2.8149536795 3.1591750203 1.5963382657
H -0.1103486649 -0.3581666684 0.8611987371
