27
CONF214
C 2.8262784905 -1.2056809415 -0.0943767125
C 4.2647370483 -1.0198621470 0.3981987830
C 5.0014360332 0.1331842798 -0.2762128906
O 6.3543380692 0.2476508962 0.1642072696
C 1.9302268552 -0.0113389425 0.2501448408
C 0.4871665344 -0.2633993484 -0.1252483565
C -0.4629771001 0.9001385088 0.2684060462
C -1.9391846261 0.8807848358 -0.2599264123
C -2.8009137642 -0.3914797411 0.0042131024
F -2.3956452504 -1.4121077622 -0.7592597914
F -4.0768884145 -0.1146383257 -0.3046231118
F -2.7406407138 -0.7487541336 1.2939752288
F -1.9323636218 1.0995408692 -1.5932770203
F -2.5695390514 1.9187305869 0.3451273296
F 0.0717238103 2.0612243504 -0.2004699451
F -0.5007067728 0.9702787063 1.6229730111
F 0.0190299370 -1.3907207560 0.4990992659
F 0.3671418231 -0.4662724313 -1.4743261991
H 2.8223559937 -1.3628261449 -1.1792486888
H 2.4085198656 -2.1098406730 0.3588918086
H 4.2796545140 -0.8661026579 1.4843673040
H 4.8179850970 -1.9487838192 0.2045617206
H 4.5407845154 1.0936402111 -0.0231001242
H 4.9488078769 0.0223447989 -1.3724770907
H 2.2510696311 0.8923535541 -0.2747790459
H 1.9660942665 0.1983481806 1.3252897748
H 6.8138465085 -0.5659238971 -0.0710882779
