57
CONF121
C 0.0416718708 -1.5935349806 -1.9104654480
C -0.8742182696 -1.2831166625 -0.7412582549
C -2.0038221022 -0.2980543142 -1.1298434882
C -1.5234836135 1.0489271963 -1.6002437449
C -1.2614295005 1.2963179039 -2.9510192880
C -0.7860609533 2.5374704444 -3.3685661504
C -0.5710947641 3.5530747384 -2.4393338599
C -0.8431187232 3.3218790962 -1.0917757196
C -1.3171520019 2.0804395817 -0.6781951696
C -1.4880075135 -2.5073138630 -0.0807473578
C -1.4867674593 -3.7598531903 -0.6959885515
C -2.0879952590 -4.8534872008 -0.0736753295
C -2.6933048926 -4.7108581527 1.1706582614
C -2.7029158136 -3.4614895930 1.7894156449
C -2.1120404067 -2.3704835876 1.1637770917
O -0.0942462717 -0.5195675430 0.2721586700
P 1.1082071820 -1.0290201896 1.1680239581
O 1.4378402872 -2.4706658531 1.1758168284
O 0.7666342920 -0.4864348588 2.6438046703
C 0.1245577622 0.7489640045 2.8514153749
C -1.1603453162 0.7196178008 3.3764381596
C -1.8185882201 1.9241757785 3.6113438401
C -1.1926138516 3.1356330435 3.3250235704
C 0.1048338200 3.1411266137 2.8186263363
C 0.7781212866 1.9446077505 2.5811145148
O 2.3344668874 -0.0452076697 0.7811684954
C 2.7631994612 0.0548041609 -0.5506904936
C 3.5635699937 -0.9404758827 -1.0950306989
C 3.9953712701 -0.8018212465 -2.4124729680
C 3.6343846941 0.3183985319 -3.1584692346
C 2.8399146619 1.3100608537 -2.5853253869
C 2.3955160213 1.1825798266 -1.2719278629
H 0.5287430248 -0.6766372729 -2.2478497781
H -0.5380759998 -2.0004581017 -2.7429989674
H 0.8084804208 -2.3185392974 -1.6248839534
H -2.6495369087 -0.1722581937 -0.2556361759
H -2.5914321420 -0.7960804729 -1.9082830498
H -1.4309075544 0.5093615938 -3.6811213314
H -0.5853428842 2.7118193161 -4.4214775160
H -0.2005402842 4.5206024803 -2.7639294581
H -0.6857375137 4.1094502103 -0.3603773374
H -1.5239873974 1.9034511620 0.3740009412
H -1.0151288165 -3.8998799480 -1.6616857693
H -2.0756983482 -5.8211261240 -0.5658356549
H -3.1552737719 -5.5649883820 1.6557084521
H -3.1733267224 -3.3357992745 2.7598108055
H -2.1255199008 -1.4016370087 1.6523837548
H -1.6296715723 -0.2316545238 3.6021830468
H -2.8246659509 1.9110784697 4.0181906407
H -1.7109044146 4.0718377881 3.5043519733
H 0.6036836024 4.0812933146 2.6057319654
H 1.7883497944 1.9404745773 2.1905537713
H 3.8362276164 -1.8045683270 -0.4987921431
H 4.6182114922 -1.5735958158 -2.8533777051
H 3.9741434797 0.4199080822 -4.1839708465
H 2.5547688110 2.1844029854 -3.1617551468
H 1.7581098073 1.9321459154 -0.8139307447
