47
CONF50
C 2.2441340686 2.7580896557 2.0752581803
C 1.1070855635 1.7699504000 1.9468069077
C -0.1315343327 1.9250081580 2.7971445846
C -0.1778885022 2.3157409230 1.3182322298
C -0.9736809092 1.4881281789 0.4018103405
O -1.3769589845 0.3601969379 0.5917631076
O -1.2006310314 2.1724836833 -0.7638222299
C -1.8747985422 1.4037589281 -1.8022124038
C -2.5759096487 2.3878806353 -2.6239302044
N -3.1333174754 3.1450071731 -3.2937907357
C -0.8779786243 0.5950338794 -2.5978147281
C -0.8033887267 -0.7783494096 -2.3794192916
C 0.1681932733 -1.5310999931 -3.0303896832
C 1.0352869158 -0.8868972070 -3.9124103447
C 0.9604668283 0.4737132366 -4.1508553695
C 0.0003086325 1.2232307281 -3.4820616908
F 1.9701746160 -1.6229528891 -4.5476244492
O 0.2878495988 -2.8897139831 -2.8980962482
C 0.0499884912 -3.4530206008 -1.6462646055
C -0.6584849151 -4.6475970985 -1.6194962286
C -0.8599436785 -5.2837941922 -0.3968160446
C -0.3653616312 -4.7250044580 0.7795993935
C 0.3448668264 -3.5262479722 0.7302294053
C 0.5634264916 -2.8833120199 -0.4845698042
C -0.2679274713 2.9810494319 3.8023736185
C -0.8618768635 2.8417449627 4.9879542761
Cl -1.5883708124 1.3610494381 5.5511039208
Cl -0.9754498507 4.1552693047 6.1317927545
C 1.5582591133 0.3616371051 1.6352794760
H 2.8657014427 2.7204345684 1.1747713040
H 2.8719914620 2.4914597555 2.9325891138
H 1.8992361098 3.7859407116 2.2036843721
H -0.6398397878 0.9902961783 3.0129861604
H -0.1597937590 3.3744744550 1.0833497498
H -2.6206258055 0.7468389807 -1.3407564857
H -1.4855625880 -1.2647341439 -1.6911543984
H 1.6564467347 0.9308695323 -4.8457252495
H -0.0587741274 2.2937566018 -3.6506346592
H -1.0415720434 -5.0648417578 -2.5447858626
H -1.4128277614 -6.2173909499 -0.3671655585
H -0.5299459978 -5.2213743120 1.7301627153
H 0.7419696566 -3.0886874932 1.6409522374
H 1.1224914809 -1.9545068726 -0.5300867137
H 0.1411737015 3.9621233985 3.5808042509
H 2.2656549638 0.0337361790 2.4042458351
H 2.0720151615 0.3333027952 0.6674943765
H 0.7257230760 -0.3426804950 1.6091247549
