36
CONF60
C 1.1603992944 -3.2884687797 2.1675822712
C 2.5321840928 -3.1667185923 2.3692101966
C 3.1220396110 -1.9076507930 2.3614373120
C 2.3329236685 -0.7842731006 2.1326283364
C 0.9556218052 -0.8682991935 1.8994462429
C 0.3931211460 -2.1519068962 1.9441335075
C 0.0808325777 0.3224386977 1.6219349139
C -0.1070400689 0.6318649851 0.1136038023
C -0.8526289896 -0.5309694804 -0.5755672110
N -1.2997074013 -0.2239180433 -1.9310581309
C -0.6424017233 -0.3250211277 -3.1279127089
S 1.0027412632 -0.7308614092 -3.2819936346
N -1.5241166821 -0.0336998328 -4.1349571976
C -2.6751944445 0.2399054904 -3.5396567964
N -2.5878681986 0.1248500616 -2.2136209697
C -0.8694465874 1.9580938070 -0.0411284992
C -0.1573565887 3.2616147942 0.0979329578
C -0.6986805801 2.8263886292 -1.2472906859
Cl -2.5432640904 1.8979573697 0.6595209567
O 1.1800377043 0.8138713850 -0.4569427411
Cl 3.1411269879 0.7850744168 2.2017932895
H 0.6866647447 -4.2642781016 2.1923413604
H 3.1459640483 -4.0437084274 2.5469797251
H 4.1856508636 -1.7943966976 2.5387921517
H -0.6797916206 -2.2504918539 1.8049734723
H -0.9018269568 0.1546959267 2.0701240843
H 0.5017654136 1.2234428190 2.0756978365
H -1.7310334093 -0.8259675416 0.0030138752
H -0.1829738808 -1.3932465822 -0.6511037340
H -3.6003338172 0.5228890335 -4.0255998851
H -3.2595636184 0.3461955020 -1.4864378803
H 0.9146392409 3.2085098526 0.2547035584
H -0.6761652593 4.0616989097 0.6131100672
H 0.0130643127 2.4933693194 -1.9958634617
H -1.5796471654 3.3342024269 -1.6235398763
H 1.2202635087 0.3768127356 -1.3362857963
