30
CONF20
C 4.6334661010 0.1194290278 -0.5731442960
C 3.1894008255 0.4627276449 -0.2133020306
C 2.3889862289 -0.7667065260 0.2189117763
C 0.9627646365 -0.4635892079 0.6877033129
C 0.0416847241 0.0623627201 -0.4139344184
C -1.3824057471 0.3458826618 0.0546198043
C -2.1691494404 -0.8832630290 0.5357298241
C -3.6506714510 -0.4468361926 0.5060875426
C -3.7143415373 0.7714488447 -0.4587864386
C -2.2991373649 0.8982162326 -1.0443188668
H 5.1568831516 -0.3225343781 0.2815993249
H 4.6700843735 -0.6054908996 -1.3935799849
H 5.1922815796 1.0067330643 -0.8858792596
H 2.7075345195 0.9414160715 -1.0740198437
H 3.1755995726 1.2029421379 0.5981215403
H 2.3541090382 -1.4859067600 -0.6118519880
H 2.9314701427 -1.2678516653 1.0319311322
H 0.9990215594 0.2660362306 1.5093695053
H 0.5288389466 -1.3791348274 1.1085403997
H 0.0041076751 -0.6701201702 -1.2344437197
H 0.4597958555 0.9830601222 -0.8406719455
H -1.3471468087 1.0798767809 0.8755300676
H -1.8591862281 -1.2378432895 1.5229726972
H -1.9980754715 -1.7048661501 -0.1734720689
H -3.9871058845 -0.1596977174 1.5070047790
H -4.3008478403 -1.2630587833 0.1785873146
H -3.9704128743 1.6797382155 0.0966449149
H -4.4746499745 0.6497856491 -1.2355726726
H -2.1965906821 0.2650856575 -1.9363810923
H -2.0463083239 1.9221585404 -1.3383370067
