27
CONF78
C -3.5710245993 0.3681142092 -0.9407044304
C -4.5645081367 -0.7871280499 -1.1040746979
O -5.1887846699 -1.1807969415 0.1198277116
C -2.2613873106 -0.0521922227 -0.3192843247
C -1.2294179683 1.1062557765 -0.2134854153
C 0.0964877174 0.8722726102 0.6006790538
C 0.9929381154 -0.3403752399 0.1875883872
C 2.4615593114 -0.2382014190 0.7313616257
C 3.2326211166 -1.5999673643 0.7273124606
F 4.5279939128 -1.3611236550 0.9725538475
F 3.1200512202 -2.1964503613 -0.4678506642
F 2.7641610524 -2.4202956337 1.6734434917
F 2.4501680058 0.2188943833 2.0044542023
F 3.1548470367 0.6248325309 -0.0417848710
F 0.4335356084 -1.4742658415 0.6714482139
F 1.0563460781 -0.4164231566 -1.1602276015
F 0.8333182073 2.0049967644 0.4457886673
F -0.2221875671 0.7456093113 1.9072073549
F -0.8924546629 1.4956181656 -1.4674730753
F -1.8372868111 2.1549279503 0.4055010596
F -1.6752920320 -1.0500945261 -1.0560566273
F -2.4443899200 -0.5554537754 0.9478302259
H -3.3459078683 0.7872362904 -1.9276237063
H -4.0164751729 1.1578253762 -0.3297165702
H -5.3694747972 -0.4339407403 -1.7538225354
H -4.0858472380 -1.6425480538 -1.5974389648
H -4.5513248237 -1.6854210847 0.6388895239
