55
CONF33
C -6.4154320296 -3.7175330782 0.4497104693
C -6.8196232162 -2.2672755295 0.6077662038
O -6.1339736340 -1.4244758985 -0.3636090574
C -4.8755277271 -1.0426404801 -0.0327331825
O -4.3249038332 -1.2990844943 1.0239754357
N -4.3450677104 -0.3240881539 -1.0708977901
C -3.0837613756 0.2798594811 -1.1487705801
C -2.1004691250 0.1407656748 -0.1657745126
C -0.8644506258 0.7521029875 -0.3483262184
C -0.6105025580 1.5491017895 -1.4660856143
C -1.6019452743 1.6988331177 -2.4354799912
C -2.8193035482 1.0556741195 -2.2879966137
S 0.9610056492 2.3683797909 -1.6378132485
C 1.2565977225 2.7096209117 0.0823884205
C 1.9161721064 3.8748482940 0.4732555085
C 2.1128917612 4.1338023012 1.8253925674
C 1.6114240514 3.2589849195 2.7883921260
C 0.9389711906 2.1056670638 2.3999393231
C 0.8042629691 1.8013846826 1.0461164430
N 0.1774490470 0.5937144810 0.6174436063
C 0.6558229651 -0.6831978038 0.9103050795
O 0.0744623451 -1.6814737488 0.4991867273
C 1.9180764951 -0.8056200771 1.7322426613
C 2.9507587699 -1.7747652078 1.1064071080
N 3.6743744314 -1.3093428318 -0.0732305369
C 4.4056793849 -0.0589156425 0.1378048261
C 5.2663617078 0.2359799882 -1.0803124072
O 4.4651853612 0.3369296149 -2.2632623710
C 3.7419613981 -0.8828890470 -2.4715298973
C 2.8529289192 -1.2045296635 -1.2808326002
H -6.6227293404 -4.0686473934 -0.5651887943
H -6.9906274164 -4.3303659723 1.1509149486
H -5.3524868678 -3.8540518385 0.6651424469
H -6.6090067123 -1.8921112261 1.6125363080
H -7.8775605851 -2.1190993646 0.3813751492
H -4.9533985344 -0.1921873254 -1.8665365865
H -2.2788902615 -0.4507934188 0.7181729721
H -1.4217629029 2.3218686293 -3.3053855026
H -3.5834408855 1.1708514787 -3.0507420526
H 2.2653738401 4.5743348094 -0.2794959735
H 2.6340477676 5.0365337916 2.1265745471
H 1.7350720167 3.4784965586 3.8435038638
H 0.5388271107 1.4186102251 3.1387356502
H 2.3855590531 0.1548546560 1.9432291754
H 1.6155951481 -1.2328452136 2.6965271521
H 3.6926578262 -1.9907996467 1.8851672437
H 2.4499135424 -2.7156117275 0.8526405304
H 3.7287810123 0.8037964041 0.2994634901
H 5.0457272621 -0.1576152084 1.0237925117
H 5.7760636063 1.1970953094 -0.9657615306
H 6.0190716133 -0.5587566090 -1.2102307306
H 3.1371058994 -0.7364813452 -3.3711978215
H 4.4528152709 -1.7075001235 -2.6438521117
H 2.3388080022 -2.1575590681 -1.4531126592
H 2.0850595522 -0.4118348632 -1.1999426343
