41
CONF14
C -2.8467612995 2.3318168984 -0.8327124497
C -1.5361409835 2.9177844913 -0.2959021397
C -0.7110465266 3.5322981334 -1.4227559782
N -0.7040917822 1.9348300873 0.4182467661
C -1.3045306383 1.3855478157 1.6369806985
C -0.1975230355 0.9426885252 2.6173091567
O 0.8559733038 1.8972302144 2.6114401308
C 0.3227908315 -0.4631439512 2.3607457968
O 0.7432613423 -0.5619609870 0.9940088725
C 1.2973221517 -1.7365495850 0.5748175295
C 1.4692163848 -2.8523448462 1.3973125881
C 2.0422873503 -4.0121318836 0.8773438915
C 2.4421018908 -4.0673184056 -0.4515468301
C 2.2631746870 -2.9471614631 -1.2618878890
C 1.6953599213 -1.7740001055 -0.7743127876
C 1.4792540165 -0.5879967455 -1.6721793032
C 0.0748968037 -0.4411205693 -2.1998722339
C -0.9617839447 -1.2218823278 -1.9054862312
H -3.4544734564 1.9032939566 -0.0295508893
H -3.4431378089 3.1030287926 -1.3316806225
H -2.6333319272 1.5396582956 -1.5603178058
H -1.7760572634 3.7074676369 0.4308435513
H -1.2841357740 4.3048494056 -1.9442841480
H -0.4373749836 2.7657836113 -2.1574217866
H 0.2082077515 3.9791737542 -1.0333469899
H -0.4655011426 1.1727975032 -0.2120367096
H -1.8756740151 2.1893333844 2.1169797412
H -1.9971386232 0.5469607614 1.4598287932
H -0.6233530664 0.9189660978 3.6305515179
H 0.8208034304 2.2646172066 1.7050856895
H -0.4734779338 -1.1966627877 2.5584922065
H 1.1702183973 -0.6619895848 3.0301511419
H 1.1638308945 -2.8302700955 2.4358226415
H 2.1729370800 -4.8733053677 1.5252733674
H 2.8902869594 -4.9685394608 -0.8560611746
H 2.5699167851 -2.9794796506 -2.3041829013
H 1.7519236027 0.3402014349 -1.1506063661
H 2.1609401265 -0.6579860016 -2.5295673619
H -0.0663815793 0.3907239411 -2.8903529762
H -0.8630652332 -2.0639776274 -1.2252724055
H -1.9397221911 -1.0405901102 -2.3398961115
