43
CONF3
C 3.5082656732 -2.6529783724 -2.7620545424
C 2.0705456320 -2.8974589850 -2.3669342364
O 1.6894440789 -1.8053683226 -1.4936497309
N 0.3753852866 -1.9909351843 -1.0832037653
C -0.0420291394 -1.0597766857 -0.3080296636
C -1.4159153482 -1.1418621990 0.2136279122
C -2.2991813444 -0.0624759837 -0.0112111988
C -3.6376865224 -0.1468976455 0.3588629567
C -4.1071127368 -1.3156482914 0.9501406113
C -3.2473101012 -2.3693066636 1.2015873760
C -1.8851668112 -2.2973626100 0.8635413064
O -1.1199846497 -3.3683570610 1.1725584361
C 0.1884964347 -3.1628481006 1.7548776597
Cl -3.8599231441 -3.8109183724 1.9918168566
O -1.7458016153 1.0150457772 -0.6228173700
C -2.5675027450 2.1754220177 -0.8224183468
O 0.7504478452 0.0449381557 -0.0816616780
C 0.5608974007 0.8364125627 1.0321421182
O 0.0527653769 0.4264872789 2.0498964660
C 1.0918823562 2.1964149872 0.8229153357
C 1.5395214622 2.6381705873 -0.4282475985
C 2.0039079256 3.9397699284 -0.5732234946
C 2.0269650891 4.8011280355 0.5223169843
C 1.5818801888 4.3623716604 1.7691462988
C 1.1139687051 3.0646104434 1.9212936001
H 3.8402219060 -3.4562538112 -3.4258258789
H 3.6113737524 -1.7020139734 -3.2925498456
H 4.1585622924 -2.6405093350 -1.8826812836
H 1.4064243161 -2.9036635714 -3.2394987763
H 1.9544547932 -3.8430422062 -1.8237640282
H -4.3238745741 0.6705773885 0.1827395472
H -5.1502447220 -1.3951682131 1.2349592884
H 0.9657581237 -3.3589246774 1.0125296097
H 0.2672633412 -3.8797601872 2.5753109651
H 0.2868439280 -2.1447937929 2.1414695713
H -1.9142156747 2.9162119176 -1.2836985851
H -3.4049843879 1.9502479444 -1.4916590325
H -2.9419196949 2.5545933545 0.1347648923
H 1.5149227041 1.9694026817 -1.2800464584
H 2.3475087766 4.2840602386 -1.5431664295
H 2.3914166637 5.8167998055 0.4045550911
H 1.6004000862 5.0340155966 2.6211303712
H 0.7633289509 2.7096445079 2.8841587738
