48
CONF11
C -3.3827213366 0.5444665936 -3.1101632374
O -4.2104278859 0.9135492308 -1.9975181309
C -3.8241316105 0.4901411386 -0.7642807117
C -4.6813023012 0.8868062162 0.2920120899
C -4.4031591294 0.5096554930 1.5767462095
C -3.2580483710 -0.2708511267 1.8790048835
N -3.0502991763 -0.6108831927 3.1816931083
C -1.9838890686 -1.3385200566 3.4578902348
C -1.0573797082 -1.7587242170 2.4875216754
C -1.2268675713 -1.4189779628 1.1619746630
C -0.1643078804 -1.8378507031 0.1689267322
O -0.7049084736 -2.5086410349 -0.9815726245
C 0.6544748521 -0.6576071896 -0.3762940601
C 1.7733752771 -1.1288487975 -1.3404246777
C 2.9850854432 -0.2109342182 -1.1274686098
C 3.5831768974 -0.5125722746 0.2511657754
C 2.4227458309 -0.4771900023 1.2808082195
N 1.2167357290 0.1690155274 0.7121956839
C 1.6323184901 1.4633501909 0.1291426036
C 2.4923600261 1.2588573419 -1.1462975981
C 3.6210875856 2.2268308415 -1.3423846162
C 3.9355934123 3.2882225802 -0.5995082775
C -2.3830022276 -0.6587725394 0.8129849685
C -2.7007004349 -0.2706596532 -0.5136465335
H -2.3687852493 0.9445622238 -2.9920142694
H -3.3395279517 -0.5453234924 -3.2199673504
H -3.8543729746 0.9856317443 -3.9882722260
H -5.5568534877 1.4835506995 0.0564977506
H -5.0553916884 0.7995346753 2.3945344733
H -1.8316830707 -1.6119992890 4.5013922417
H -0.1951976182 -2.3435317279 2.7946944486
H 0.5191366840 -2.5226584569 0.6921531128
H -1.1674693141 -3.2962427009 -0.6677031773
H -0.0391952327 -0.0058942061 -0.9203323728
H 1.4260592534 -1.0903058651 -2.3776670134
H 2.0566903487 -2.1675950188 -1.1261407345
H 3.7283996962 -0.3668066604 -1.9167043397
H 4.3475900816 0.2333664160 0.4972150412
H 4.0688766740 -1.4943488430 0.2476504017
H 2.7109359505 0.0810989465 2.1786465422
H 2.1546339425 -1.4876103275 1.6052723785
H 2.2004033782 1.9907858915 0.9028190114
H 0.7401774204 2.0603367462 -0.0943056133
H 1.8467322733 1.3581749996 -2.0333620237
H 4.2347507919 2.0156228279 -2.2206983012
H 4.7807791375 3.9164659680 -0.8651469724
H 3.3741104112 3.5770196685 0.2841704199
H -2.0666093063 -0.6036968969 -1.3207992909
