66
CONF4
C 4.7805286074 -1.9351659940 -1.4999401761
C 4.9548370338 -1.3939872323 -0.0947331287
O 3.7622854395 -0.6845436034 0.3328059555
C 3.6300574060 0.6018091494 -0.0876841447
O 4.5172365192 1.1862336246 -0.6975985058
C 2.3256194901 1.1438718072 0.2861476914
C 2.0667037992 2.4734429730 0.1266058032
N 0.8405332763 2.9671132519 0.5053724921
C -0.1168316483 2.2528680219 1.1875602717
C 0.0872496660 0.9251802913 1.4252456498
C 1.2665720927 0.1823136908 0.8094228397
C 0.8104104948 -0.8130356318 -0.2630269346
C 0.9960451351 -2.1789676407 -0.0304463130
C 0.5774613033 -3.1416051812 -0.9394328472
C -0.0494538520 -2.7465387761 -2.1198996817
C -0.2491798009 -1.3964443827 -2.3673304260
C 0.1709139554 -0.4177353003 -1.4529949274
C -0.0281544981 0.9936957299 -1.8250234602
C -1.1855010643 1.6297894778 -2.0602310197
C -2.5565608635 1.1103423865 -1.8763956876
O -3.5201147787 1.6307429299 -2.4197106080
O -2.6046786661 0.0623880503 -1.0457034726
C -3.8625927853 -0.6814185176 -0.7813498702
C -4.4144191522 -1.2494422586 -2.0829941019
C -3.3833111481 -1.8007092582 0.1341347974
C -4.8542968897 0.2211272405 -0.0586255354
C -0.8271484677 0.1949745818 2.2981688684
O -1.8602832888 0.6194191538 2.8046462813
O -0.3830096450 -1.0677046187 2.5340993830
C -1.1612682240 -1.8595651343 3.4685633873
C -0.5607051578 -3.2459951393 3.4826561910
C -1.2970967406 3.0675191826 1.6190997803
C 2.9972669626 3.5043652247 -0.4352296847
H 5.6635339663 -2.5190818858 -1.7782913750
H 4.6637436398 -1.1210520569 -2.2200360684
H 3.9026453502 -2.5859683032 -1.5546896887
H 5.8184191080 -0.7276304815 -0.0208080928
H 5.0598761648 -2.2028744374 0.6321794693
H 0.6702462863 3.9504176329 0.3575266585
H 1.7273539539 -0.4263039525 1.5919349189
H 1.4799255604 -2.4840636386 0.8922559020
H 0.7401301800 -4.1944090555 -0.7294180432
H -0.3820182332 -3.4852449877 -2.8425689770
H -0.7356440001 -1.0762628012 -3.2840026779
H 0.8828537994 1.5687469561 -1.9847561576
H -1.1623829317 2.6476563008 -2.4387698488
H -5.2441236503 -1.9224615318 -1.8458399955
H -4.7805653770 -0.4633718427 -2.7444725232
H -3.6415377434 -1.8269148387 -2.6002825129
H -2.6258296462 -2.4095365953 -0.3693481475
H -4.2276293616 -2.4390190331 0.4085927350
H -2.9499667009 -1.3804862954 1.0457272176
H -4.3839188955 0.6664288295 0.8238665644
H -5.2244752471 1.0146680197 -0.7093365266
H -5.7029588326 -0.3842969362 0.2750518045
H -2.2067197247 -1.8737416063 3.1457894501
H -1.1149169074 -1.3822488707 4.4537630144
H -1.1114058646 -3.8724387774 4.1904241357
H -0.6232180843 -3.7058878002 2.4918040617
H 0.4883982084 -3.2157597221 3.7909491082
H -1.3519212101 3.1249587907 2.7092279153
H -2.2275718259 2.6060299351 1.2822164254
H -1.2320876651 4.0808342752 1.2148439880
H 2.5604596923 4.5026550761 -0.3507628014
H 3.9556395271 3.4883275452 0.0868983588
H 3.2106518430 3.2970719256 -1.4870951301
