52
CONF44
C -1.0719544009 -3.3469011235 0.7357334914
C -1.1758609398 -2.0143774120 1.4206533655
C -1.6151894549 -0.8804863352 0.8475717093
C -2.0606035578 -0.7311888471 -0.5460999043
C -1.9542954818 0.6296766839 -1.2925437667
C -3.3045802946 0.0246812656 -0.9358721292
C -4.1849167467 0.6474833959 0.1231775400
C -4.0819106133 -0.5145191595 -2.1188567385
C -1.3787353729 1.8024366657 -0.6198125770
O -1.5960581254 2.2021875754 0.5080696813
O -0.4929194392 2.4218047803 -1.4556189967
C 0.2540592403 3.5104504091 -0.8728082970
C 1.3119916080 3.0341273463 0.0917843980
C 1.7567895878 1.7142427916 0.0681178943
C 2.7492511512 1.3098995261 0.9576914758
C 3.3086690798 2.2030773105 1.8677484596
C 2.8563320966 3.5182979514 1.8812754801
C 1.8626009742 3.9387303231 1.0011436318
O 3.1870220459 0.0019262599 1.0299282072
C 3.0490317001 -0.8074080117 -0.0901171321
C 3.6305786135 -0.4503675855 -1.3040782266
C 3.5244504076 -1.3210229829 -2.3839533951
C 2.8526663909 -2.5359824168 -2.2491940118
C 2.2858826484 -2.8806705928 -1.0247142817
C 2.3781312676 -2.0141979006 0.0627457442
C -0.7753682192 -2.0306513004 2.8693307648
H -0.1018241632 -3.8103316422 0.9511784251
H -1.8354062902 -4.0308544573 1.1293863261
H -1.1932843366 -3.2935224059 -0.3473711358
H -1.6611030136 0.0098808151 1.4682448691
H -1.8200451804 -1.5587212950 -1.2068470606
H -1.6591591440 0.5436587285 -2.3328576889
H -3.6213521103 1.0273882173 0.9731562677
H -4.8982167153 -0.1036478663 0.4804972690
H -4.7563673898 1.4775246727 -0.3068113543
H -4.7945714272 -1.2762611390 -1.7831589997
H -4.6469085154 0.2897021332 -2.6036351944
H -3.4201823355 -0.9678180453 -2.8626834373
H 0.7138937139 4.0107669150 -1.7303646856
H -0.4266972960 4.2096343747 -0.3781615794
H 1.3269599708 1.0020939798 -0.6271647868
H 4.0768184936 1.8602885090 2.5526418499
H 3.2822876544 4.2209435718 2.5906915673
H 1.5092587595 4.9653616827 1.0258005954
H 4.1543375812 0.4957571224 -1.3961174734
H 3.9763158838 -1.0508424934 -3.3332700881
H 2.7758387892 -3.2117623300 -3.0945969134
H 1.7639799166 -3.8255676225 -0.9115657541
H 1.9397236017 -2.2620444637 1.0235651078
H -0.8972493376 -1.0503008511 3.3371879420
H 0.2722144710 -2.3408649028 2.9783176893
H -1.3743238567 -2.7617090096 3.4279003615
