45
CONF359
O 3.6708103952 0.2435799372 3.3748992445
C 2.5592802626 -0.3277197772 2.6853341968
C 2.2079642155 0.4607108942 1.4362700151
O 3.3382743861 0.4859341499 0.5238467646
C 3.0572901326 -0.3527652372 -0.5880732827
O 3.3087348276 -1.7161170357 -0.2926423310
C 3.9070739931 0.1036329552 -1.7656026709
O 5.2719276793 -0.2849824824 -1.5889857445
C 1.5413424320 -0.2165220161 -0.7926271747
O 1.0031660390 -1.2538534820 -1.5915618602
C 1.0275343312 -0.1375000821 0.6602482819
O -0.1027095731 0.7200325530 0.8622856800
C -1.3407331800 0.1534472448 0.5568526861
O -1.5015792443 0.1530420136 -0.8588015053
C -2.7204889672 -0.5164535024 -1.2345826437
C -2.6263778734 -0.7429091666 -2.7305509294
O -1.5576557590 -1.6352714316 -3.0430245633
C -3.8921133327 0.3402099126 -0.7699939880
O -3.9265852600 1.6109044498 -1.4332013240
C -3.8130524210 0.5346926719 0.7546964535
O -4.8363894621 1.4179425916 1.2008600579
C -2.4267816939 1.0215951308 1.1917635250
O -2.3684675570 0.9494922807 2.6128817828
H 4.4207958874 0.2196553810 2.7658374576
H 2.7556388342 -1.3753506307 2.4155400336
H 1.7070654617 -0.2973462702 3.3738684127
H 1.9910330303 1.5012335593 1.7023704033
H 4.2497974677 -1.8728010235 -0.4738240353
H 3.8032413232 1.1877262328 -1.8927148774
H 3.5514519784 -0.4011693038 -2.6688528948
H 5.6547015071 0.2815247723 -0.9059440331
H 1.3280288690 0.7342194487 -1.2934064130
H 1.4512912989 -2.0731944293 -1.3307795008
H 0.7837415344 -1.1505758087 1.0141983470
H -1.4009074339 -0.8843940319 0.9354112616
H -2.7727434701 -1.4952192046 -0.7292802828
H -3.5536908898 -1.2041351224 -3.0858498114
H -2.5007662359 0.2221169434 -3.2425021951
H -0.7683353919 -1.3320890497 -2.5608559889
H -4.8404454633 -0.1534213776 -1.0100710556
H -3.0193214042 1.9495126489 -1.4621015647
H -4.0021749743 -0.4317756189 1.2400623010
H -4.8203652969 2.1755445457 0.5965236285
H -2.2736818231 2.0567211348 0.8440660088
H -1.5248188724 1.3320947541 2.8871480433
