27
CONF6
C 3.4120799771 0.1543173464 -1.4761346999
C 3.6387971026 0.0616946405 -0.1064800169
C 2.5694418771 0.0602216797 0.7833498187
C 1.2482274343 0.1494081842 0.3236088596
C 1.0319075210 0.2457473784 -1.0464863102
C 2.1055205022 0.2467199731 -1.9298010784
Cl 1.7962726999 0.3643638925 -3.6560351040
C 0.1233634809 0.1483400366 1.3380214799
C -1.2535364675 0.1057028288 0.7404868869
C -1.7691541567 -1.0983350765 0.2403962277
C -3.0368071623 -1.1463195080 -0.3342180782
C -3.8134210076 0.0040465087 -0.4208077208
C -3.3041386475 1.1961894783 0.0729724041
C -2.0392841037 1.2513100410 0.6468573403
Cl -4.2712394062 2.6581469927 -0.0244361127
O -0.9669060161 -2.2010567886 0.3419596066
O 2.7424757387 -0.0236491110 2.1404428993
H 4.2404497733 0.1552076508 -2.1743257472
H 4.6579462038 -0.0092696643 0.2655160168
H 0.0190384085 0.3185311370 -1.4261776065
H 0.2195814594 1.0384282007 1.9709388460
H 0.2653381016 -0.7113734335 2.0026270260
H -3.4259848732 -2.0860263078 -0.7179240509
H -4.8004636890 -0.0296806075 -0.8662916969
H -1.6567202659 2.1941147329 1.0231218095
H -1.4166871969 -2.9594668116 -0.0467372785
H 3.6839032361 -0.0873134942 2.3355563909
