47
CONF147
C -2.9590100052 1.0843956936 3.0253529402
O -2.8022155993 1.4782447164 1.6387189281
C -1.5982242776 1.9437597054 1.3090750124
C -1.3069510685 2.3048943486 0.0357798570
C -2.2875088441 2.1664770445 -1.0627496965
C -2.7377904985 3.2785685353 -1.7816211553
C -3.6661838387 3.1477802166 -2.8094194358
C -4.1639368332 1.8903048556 -3.1427914116
C -3.7231949259 0.7649639662 -2.4528685160
C -2.7926917495 0.9156424185 -1.4359238787
O -2.4387879036 -0.2357131075 -0.7252934295
C -1.1361883256 -0.5981913902 -0.6690120750
C -0.7672914393 -1.4681589929 0.3489742789
C 0.5758752474 -1.8103395915 0.3574984548
N 1.4655451615 -1.3641471855 -0.5262086228
C 0.9737228683 -0.5509250805 -1.4650835879
N -0.2872369046 -0.1427250384 -1.5928412472
O 0.9930625751 -2.6384538804 1.3569664632
C 2.3102998712 -3.0781151831 1.3470208515
C 3.1956762189 -2.5707196609 2.2794878929
C 4.4925342504 -3.0770386074 2.3294206658
C 4.8975099289 -4.0825648163 1.4533071089
C 4.0068423034 -4.5953335937 0.5211030873
C 2.6981096050 -4.0958252651 0.4636447804
C 1.7633273946 -4.6079041631 -0.4732641400
N 0.9931378512 -5.0271819735 -1.2305236489
C 0.0205267798 2.8366025144 -0.2945324996
O 0.3415294398 3.2530288200 -1.3967486988
O 0.8805703098 2.8084362643 0.7518652095
C 2.2092357343 3.3079903942 0.4777297977
H -3.9910490620 0.7511756166 3.1259884063
H -2.7720316437 1.9402072933 3.6802755230
H -2.2729281785 0.2652103834 3.2581682394
H -0.8656642187 2.0260003649 2.1089463496
H -2.3557985305 4.2583651450 -1.5139793113
H -4.0050346214 4.0284686220 -3.3451251297
H -4.8906762784 1.7806830799 -3.9411122245
H -4.0857398265 -0.2278219847 -2.6976170003
H -1.4693992823 -1.8320711013 1.0880624597
H 1.6822076920 -0.1830158576 -2.2059585064
H 2.8659715583 -1.7881531789 2.9538737498
H 5.1902387256 -2.6801931068 3.0591573179
H 5.9088595021 -4.4706572775 1.4984418152
H 4.3054318063 -5.3805718153 -0.1641686282
H 2.1673285249 4.3542982676 0.1649756981
H 2.6863243364 2.7085655870 -0.3019685123
H 2.7516658895 3.2117578559 1.4177748664
