38
CONF2
C -2.2044027078 1.9698400225 -1.2304122339
C -1.8808024274 0.8144937364 -2.1704768223
C -1.4366311969 -0.4243828636 -1.3706353717
C -2.3840445290 -0.7215432081 -0.2207037140
C -2.3340331294 -1.9854473577 0.3841843647
C -3.1689121889 -2.3115847476 1.4412403043
C -4.0777104437 -1.3663022385 1.9158240578
C -4.1374234905 -0.1130858345 1.3251612055
C -3.3018772959 0.2311328588 0.2543984271
C -3.4096695004 1.6060106831 -0.3653275104
C 0.0206559764 -0.3081185811 -0.9550918859
C 0.4959700062 0.0999497259 0.2650377981
C 1.9139968964 0.2091543512 0.5107762605
C 2.4553765993 0.6189675237 1.7389924856
C 3.8266515114 0.7041687005 1.9031962255
C 4.6806399257 0.3804214968 0.8439938719
C 4.1674517534 -0.0276355647 -0.3769930519
C 2.7866027868 -0.1111251943 -0.5355346093
O 2.3243535873 -0.5174838144 -1.7468019726
C 0.9569651345 -0.6276834582 -2.0167108530
O 0.6543437486 -0.9846197131 -3.1333956410
O -0.2681582015 0.4369208460 1.3205170444
H -1.3331382204 2.1842996370 -0.5973374634
H -2.4151778449 2.8834887561 -1.7954951913
H -1.0965198643 1.0777323330 -2.8849789517
H -2.7748829167 0.5559769202 -2.7534024491
H -1.6162601001 -2.7118282852 0.0115666461
H -3.1138783721 -3.2954615839 1.8953700885
H -3.5640497274 2.3484535424 0.4263289489
H -4.3162879746 1.6301898108 -0.9870120801
H 4.2389265640 1.0214216266 2.8547018446
H 5.7557242155 0.4475265899 0.9747942186
H 4.8082361274 -0.2848663226 -1.2126206804
H 1.7811053579 0.8656006477 2.5501293161
H -1.4718802072 -1.2826819750 -2.0514807675
H -4.7338329446 -1.6069887110 2.7460051383
H -4.8440762238 0.6253121022 1.6953695350
H -1.2010794271 0.2306718719 1.1236031065
