49
CONF76
C -1.0653085907 1.1944421830 5.1931682092
C -0.0907377033 1.8032709532 4.4059007527
C 0.3949842841 1.1662871979 3.2684666341
C -0.0853415242 -0.1009492372 2.9418040964
C -1.0603700384 -0.7233857638 3.7218495633
C -1.5500504237 -0.0646587037 4.8444727868
N 0.4424470748 -0.7496592425 1.7909029923
C 1.7733678587 -1.0949147038 1.6330081714
O 2.7058214835 -0.5864667827 2.2296858427
C 1.8269782143 -2.2292693786 0.6319081578
C 0.3747938808 -2.5023987111 0.2992077560
O -0.0630776508 -3.2692937474 -0.5376514317
N -0.3965729799 -1.6428920982 1.0688756653
C -1.6750548929 -1.1714865805 0.6467390618
C -2.7211304768 -2.0865387048 0.5554700977
C -3.9653037152 -1.6517289016 0.1091453632
C -4.1681364989 -0.3127802586 -0.2164863034
C -3.1165636902 0.5949872774 -0.1055260269
C -1.8620134604 0.1717796924 0.3199864036
C 2.6462803153 -1.9005194094 -0.6268613250
C 2.1029678476 -0.6646178362 -1.3315448359
S 3.0234355261 -0.3900256885 -2.9180265072
O 2.6612390689 -1.5725609115 -3.8162602892
C 2.0133904567 1.0275277825 -3.4563266749
C 0.9971044157 0.8146628597 -4.3780992860
C 0.2347809663 1.9034078594 -4.7964987923
C 0.4980496427 3.1772918869 -4.2969535406
C 1.5300187984 3.3726825792 -3.3796219631
C 2.3033501701 2.2944193383 -2.9582230050
H -1.4503896510 1.7012301906 6.0718888446
H 0.2851033276 2.7874227285 4.6663424787
H 1.1341834379 1.6423524396 2.6352603228
H -1.4294771666 -1.7079250539 3.4563289849
H -2.3103359382 -0.5440476804 5.4526654983
H 2.2673454109 -3.1016020406 1.1304423042
H -2.5576706253 -3.1213265502 0.8334197852
H -4.7817329011 -2.3622860697 0.0310705880
H -5.1436715183 0.0240974004 -0.5513412588
H -3.2681385403 1.6393888129 -0.3584656799
H -1.0392765243 0.8745561108 0.3957945312
H 3.6879612985 -1.7461346397 -0.3284164960
H 2.6043841492 -2.7672271195 -1.2935267807
H 1.0481375571 -0.7706540843 -1.6139211015
H 2.2351141630 0.2465566802 -0.7361394056
H 0.8139278734 -0.1848834895 -4.7596384351
H -0.5645204605 1.7546747882 -5.5157094385
H -0.0972272314 4.0220850722 -4.6283393983
H 1.7402606067 4.3667191278 -2.9980361669
H 3.1166733574 2.4403915170 -2.2525296527
