46
CONF29
C 2.8385963875 -4.8034000175 2.1339401041
C 3.9655919219 -4.2298868749 1.3025967526
O 4.1897854833 -2.8216894148 1.6187434367
C 3.4081186998 -1.8997973844 1.0533748617
N 3.6662392850 -0.6580050209 1.4558226100
C 2.8898197330 0.2819960277 0.8787925885
N 1.9240202136 0.0255611556 -0.0360636188
C 1.7753061130 -1.2605200728 -0.3358678106
N 2.4808960639 -2.2826310388 0.1647878063
N 0.8020857220 -1.6273554013 -1.2496340370
C -0.1445390859 -0.8648803124 -1.9330587818
O -0.9764246532 -1.4038836729 -2.6469804449
N -0.0471466624 0.4970983444 -1.7428805337
S -1.2504756623 1.5682061837 -2.2737426712
O -0.8800145631 2.8455849638 -1.6483503848
O -1.3596470036 1.4680613035 -3.7303412540
C -2.7993135241 1.0031452287 -1.5561866289
C -3.7076403271 0.3760675182 -2.4004534888
C -4.9619435140 0.0249882806 -1.9107915922
C -5.3040998215 0.3237076095 -0.5965989142
C -4.3942210900 0.9666189662 0.2377077025
C -3.1226070845 1.3028499693 -0.2268026401
C -2.1412978832 1.8795885045 0.7438376203
O -1.0762027696 1.3636708746 1.0149945810
O -2.6208896250 2.9871737661 1.3165119825
C -1.7615055500 3.5891854083 2.3230878377
N 3.0817768087 1.5590684946 1.2298598228
C 2.3345018409 2.6721374892 0.6599163452
H 1.8850374613 -4.3302936654 1.8867348928
H 2.7552232205 -5.8757980135 1.9310882625
H 3.0393595985 -4.6694568336 3.2006714429
H 4.9200774525 -4.6981612874 1.5517419532
H 3.7815761440 -4.3328380790 0.2309841085
H 0.7264457373 -2.6210329789 -1.4250218332
H 0.5855627740 0.8157603592 -0.9869022014
H -3.4369816019 0.1761697107 -3.4298685867
H -5.6715436711 -0.4707637891 -2.5641796131
H -6.2854641827 0.0611929311 -0.2159068027
H -4.6604931944 1.1985734652 1.2633505778
H -2.3038167593 4.4654287174 2.6739352092
H -0.8093596996 3.8754980891 1.8706178730
H -1.5916626935 2.8825962671 3.1383660778
H 3.8183901261 1.7422041795 1.8926882252
H 2.5099190394 2.7588024509 -0.4184599286
H 1.2595106655 2.5507244820 0.8297204011
H 2.6694498658 3.5887326988 1.1471613763
