34
CONF127
C -2.0632658490 -2.5505979394 0.9554719968
C -3.1902013960 -1.5579572901 1.1213055494
O -2.6880423220 -0.1814403375 1.2557052571
P -2.1215099668 0.6223184494 0.0083778687
S -2.9318091956 0.3907668041 -1.7326682457
O -2.0801445318 2.0641181446 0.6788091768
C -1.5261094800 3.1977805538 -0.0791169885
C -1.5449131909 4.3943441739 0.8375793454
O -0.5207154508 0.1716439885 -0.1568537939
N 0.2019554851 0.2822778647 1.0386453585
C 1.4108863806 -0.1637882996 0.9097879025
C 2.1301078199 -0.0836438235 2.1516256792
N 2.7392587383 -0.0296930300 3.1334195329
C 2.1200251426 -0.7345489858 -0.2477096710
C 3.0730222644 -1.7371562567 -0.0126224336
C 3.7662955441 -2.3047002278 -1.0730398952
C 3.5373414128 -1.8594177405 -2.3728353062
C 2.6112778158 -0.8449156017 -2.6082326399
C 1.8968983617 -0.2841481202 -1.5576803721
H -1.3410508925 -2.4608635342 1.7720265387
H -2.4826910507 -3.5614086786 0.9729419025
H -1.5439764218 -2.4142869508 0.0022846983
H -3.8914506810 -1.5856170004 0.2815834567
H -3.7374629010 -1.7180813039 2.0517224879
H -2.1494130054 3.3488572815 -0.9657752098
H -0.5074573588 2.9413894124 -0.3898604380
H -1.1435445611 5.2582367137 0.2995981572
H -0.9268039732 4.2171761947 1.7216412927
H -2.5657246446 4.6253137144 1.1532847019
H 3.2597562469 -2.0816080331 0.9998934936
H 4.4904134267 -3.0898094908 -0.8827515774
H 4.0854318395 -2.2966470642 -3.2011577585
H 2.4435680881 -0.4851374554 -3.6180425438
H 1.1900481213 0.5112445563 -1.7514459219
