47
CONF283
C 4.3788749247 -2.3144296568 -1.9053278798
C 3.3701808438 -1.4826830155 -1.1719882981
C 2.1334675237 -2.0535600531 -0.7473807148
C 1.8290597296 -3.4859519431 -1.0541496853
C 1.2014707755 -1.2891070130 -0.0597100493
C 1.4493048593 0.0585605310 0.2240283981
N 0.5561408609 0.8597033904 0.9108020598
C -0.6611056015 0.2815302498 1.5176805629
C -1.9000719341 0.3847755038 0.6182002487
O -2.5796976546 1.6265663821 0.7856478358
C -2.8790770385 -0.7425082543 0.9731603049
O -2.2844797160 -2.0180828746 0.7043594372
C -4.2351589114 -0.6046461800 0.2599671755
O -5.0787099380 -1.7003923493 0.6352150329
C -4.1301535999 -0.4745156100 -1.2517956701
O -3.4069283594 -1.6095177179 -1.7699370511
C 0.7792106573 2.2050080047 1.0343581633
N -0.1782741663 2.9593696707 1.5485969925
C 0.0464119034 4.2968849399 1.7216998959
O -0.8041630727 5.0600405976 2.1735864451
N 1.3042932281 4.8172757181 1.3667409079
C 2.3513005014 4.1305107914 0.7998159051
O 3.4105514377 4.6677546430 0.5057531598
C 2.0564140861 2.6918895673 0.5854405218
N 2.9572543398 1.9504544173 -0.0040513355
C 2.6698200511 0.6449261019 -0.2206014031
C 3.6091538576 -0.1540617976 -0.9044182025
H 5.2608627087 -1.7221848532 -2.1554101484
H 3.9559312617 -2.7174705975 -2.8322500683
H 4.6951943285 -3.1721684295 -1.3013365103
H 1.8418587048 -3.6605535383 -2.1362273374
H 0.8524613514 -3.7764254769 -0.6635121224
H 2.5916317963 -4.1443743631 -0.6227298437
H 0.2656176923 -1.7536593672 0.2248780890
H -0.4484988371 -0.7608830277 1.7485450686
H -0.8464499299 0.8086858037 2.4568961749
H -1.5818827692 0.2526234016 -0.4307829224
H -1.9092211747 2.2842217727 1.0634044375
H -3.0677197926 -0.7184097698 2.0547022289
H -2.2821537189 -2.1164371518 -0.2647912832
H -4.7262558847 0.3011743760 0.6286989729
H -4.5536356821 -2.5066835390 0.5296812324
H -3.6166841186 0.4619272233 -1.5060542742
H -5.1432240321 -0.4432043013 -1.6744211152
H -3.2222058219 -1.4533665919 -2.7037306024
H 1.4373607851 5.8090838122 1.5295174912
H 4.5319241592 0.3223109552 -1.2207695264
