66
CONF44
C -0.9107178924 -2.7467162554 3.0778466589
C -1.7668818815 -2.5042512742 1.8513282200
O -1.6258064551 -1.1327077947 1.3967989932
C -2.4028848175 -0.1905589057 1.9983569497
O -3.2644302004 -0.4783204420 2.8201697378
C -2.0515352221 1.1435011084 1.5228029065
C -2.7851407227 2.2307906296 1.8950289578
N -2.4535177490 3.4657883040 1.3850597326
C -1.5418383195 3.6779057772 0.3745724387
C -0.7688151134 2.6372869394 -0.0477897088
C -0.8024289348 1.2916627278 0.6660184709
C 0.4529920226 1.1122040226 1.5257329322
C 0.6350331888 2.0004056861 2.5891942443
C 1.7517139494 1.9364056331 3.4123961266
C 2.7216548873 0.9604238187 3.1830173025
C 2.5618072445 0.0713074167 2.1328082546
C 1.4400914431 0.1288347595 1.2841809982
C 1.3042933447 -0.8240979445 0.1894102171
C 2.3077343954 -1.4946551815 -0.4053145629
C 2.1103602764 -2.4312204768 -1.5204616927
O 3.0472968433 -2.9708434505 -2.0952164032
O 0.8125828393 -2.6060379621 -1.8268469664
C 0.3748024638 -3.4539546407 -2.9644944393
C 0.9094971322 -2.8820392380 -4.2717725519
C 0.7994012513 -4.8994326733 -2.7352866973
C -1.1421128154 -3.3223085344 -2.9006979227
C 0.1605498861 2.8023879214 -1.1610728382
O 0.4156460364 3.8393063450 -1.7620649965
O 0.7435237510 1.6144994514 -1.4766173837
C 1.7838831827 1.6295793990 -2.4879724727
C 3.1153001638 2.0191137228 -1.8779125912
C -1.5347291940 5.0737844059 -0.1690476847
C -3.9684731958 2.2381190128 2.8129453462
H -0.9826477826 -3.7986267620 3.3715814046
H -1.2450326197 -2.1296689889 3.9164048557
H 0.1379273054 -2.5176783079 2.8643101999
H -2.8222698580 -2.7155553274 2.0423047481
H -1.4251058455 -3.1036025253 1.0035166078
H -3.0237390672 4.2493467023 1.6668525885
H -0.8202747748 0.5156990844 -0.0955266961
H -0.1171219860 2.7623062322 2.7735510571
H 1.8635294560 2.6387979456 4.2325568023
H 3.5916750251 0.8879200747 3.8278860920
H 3.3043606561 -0.7044141840 1.9757203988
H 0.3025087563 -1.0000506624 -0.1816958076
H 3.3479601925 -1.3530325061 -0.1288961346
H 0.6469974133 -1.8227641536 -4.3569094589
H 1.9920272466 -2.9920139434 -4.3466522731
H 0.4447657416 -3.4181554072 -5.1049837790
H 0.4721984080 -5.2387628599 -1.7474895980
H 1.8802865912 -5.0184421873 -2.8172075981
H 0.3186071069 -5.5292525156 -3.4902526618
H -1.5199613042 -3.6921614038 -1.9427445395
H -1.4418003090 -2.2768205016 -3.0198239125
H -1.5932318283 -3.9096678428 -3.7050266471
H 1.4927488570 2.3051882335 -3.2968232899
H 1.8061717760 0.6030013534 -2.8632511906
H 3.0848401041 3.0411183436 -1.4906323257
H 3.3744137998 1.3371161791 -1.0625073933
H 3.8977473152 1.9610291673 -2.6411451592
H -1.7795076813 5.0730770032 -1.2337731132
H -0.5425092754 5.5202291758 -0.0745665125
H -2.2596666812 5.6976750286 0.3595594001
H -4.7467467735 1.5663910155 2.4443844251
H -3.6873752623 1.8795016999 3.8059212830
H -4.3806277977 3.2461124639 2.9002596520
