43
CONF70
C 4.3145141173 -2.5467942970 -0.3229947306
O 4.5389130336 -1.5948030627 0.7248215390
C 3.7286097157 -0.4986447619 0.7598150876
C 2.7116887828 -0.2573775125 -0.1614815274
C 1.9768977265 0.9102638225 0.0415808566
C 2.2230290846 1.8152046872 1.0995551072
C 3.2576360622 1.5499952892 2.0031158846
C 3.9967182953 0.3960269268 1.8237739127
N 1.3256183770 2.8750219088 1.0450512700
C 0.5725255566 2.5945548941 0.0107550272
N 0.9175982288 1.4496197987 -0.6511364559
S -0.8383384832 3.5625980146 -0.5583620507
O -1.1037236419 3.0351535218 -1.9675721188
C -2.1296500756 2.7759402048 0.5918115312
C -2.0670969346 1.2883750196 0.5519365358
N -1.2767826134 0.7306520995 1.4845652521
C -1.0710824406 -0.5860416265 1.4377420805
C -1.5995458662 -1.4242955626 0.4585105913
C -1.3039498898 -2.8922011333 0.4259954581
C -2.4407988048 -0.8260251155 -0.4847928060
O -3.0243612052 -1.6324400837 -1.4321918935
C -2.4128635586 -1.5195654167 -2.7367536031
C -2.7258711814 0.5453414028 -0.4441403475
C -3.7300200408 1.1525033003 -1.3841037091
H 4.4617306616 -2.0878431012 -1.3078099526
H 5.0525934666 -3.3345580780 -0.1707506902
H 3.3044551315 -2.9689726566 -0.2588700238
H 2.4867404203 -0.9262474330 -0.9819605811
H 3.4699783955 2.2267614671 2.8242764035
H 4.8045545666 0.1462203825 2.5036785625
H 0.4401495516 1.0721215068 -1.4582587592
H -1.8821501114 3.1695510434 1.5813871484
H -3.0658442310 3.2100493056 0.2324923172
H -0.4338345193 -1.0072179438 2.2154280838
H -2.2189993538 -3.4794190802 0.5556429105
H -0.6039240598 -3.1583568055 1.2213166925
H -0.8692503857 -3.1862992304 -0.5346533267
H -2.4713477643 -0.4919788689 -3.1114698678
H -1.3636158447 -1.8337345572 -2.6899605770
H -2.9714880805 -2.1855923139 -3.3958655909
H -4.3552310207 0.3735140843 -1.8239978941
H -4.3805398350 1.8510504033 -0.8502898330
H -3.2436425284 1.7078901502 -2.1901086319
