33
CONF20
C -2.4445312956 -2.1697989374 -0.9941916570
C -2.4462628394 -0.7287050929 -1.5159964887
C -3.0967172814 0.2569379436 -0.5598339405
O -2.7773834641 0.0221518964 0.7283976256
O -3.8021114698 1.1819392703 -0.9073728126
C -1.0512796306 -0.2133997349 -1.8397214378
C -0.7715300803 0.3089219923 -3.1038103297
C 0.5045600894 0.7792608034 -3.4136332869
C 1.5126766882 0.7373033737 -2.4619126584
C 1.2398909807 0.2419023756 -1.1806410798
C -0.0392796349 -0.2336792823 -0.8790562211
C 2.3460085679 0.1747798104 -0.1848576129
O 3.5069528510 0.0170691078 -0.5575098145
C 2.0312889996 0.3027649877 1.2653012010
C 0.9815813920 1.1077570793 1.7266452562
C 0.7638523610 1.2554231758 3.0925466198
C 1.5750006724 0.5848178798 4.0053398875
C 2.6207502153 -0.2203104536 3.5520500580
C 2.8568457024 -0.3497949119 2.1901481144
H -3.4635457372 -2.4942949526 -0.7647379454
H -1.8394338319 -2.2703186627 -0.0910419646
H -2.0334206718 -2.8290173195 -1.7633350801
H -3.0412924921 -0.6725126736 -2.4312191608
H -3.1862725429 0.7151914754 1.2753649319
H -1.5561144941 0.3419981482 -3.8541771169
H 0.7058666296 1.1791137523 -4.4023243073
H 2.5100073255 1.0975721618 -2.6908735716
H -0.2389338011 -0.6392754339 0.1065718553
H 0.3539175643 1.6409436582 1.0200991080
H -0.0399688408 1.8941718055 3.4442541647
H 1.3956404685 0.6916382699 5.0706230710
H 3.2510918826 -0.7441592709 4.2636023973
H 3.6721458871 -0.9663921512 1.8260236885
