64
CONF348
C 8.3460810263 3.6250340884 -0.4460346288
C 7.7591356491 2.9640445952 0.7832161827
O 7.8718806002 3.4908253078 1.8995817474
N 7.1210973377 1.7755416631 0.6119543210
C 6.8703810410 1.1139061950 -0.6657162033
C 5.3699727403 0.9679881539 -0.8938457109
N 4.7439929832 0.2439295198 0.2262928047
C 4.9851910646 0.9442682962 1.4887208318
C 6.4842850778 1.0879862357 1.7319275217
C 3.4130101719 -0.1793328682 -0.0124309090
C 3.1449207698 -1.0178046706 -1.1111249842
C 1.8683266441 -1.4888799948 -1.3603155621
C 0.8109509772 -1.1528113683 -0.5073286507
O -0.4137644547 -1.6801572077 -0.8294074468
C -1.5099559005 -1.3336882766 0.0211061137
C -2.7467099932 -1.9796802405 -0.5799125023
C -3.2308160847 -1.2927216034 -1.8500363046
O -4.0712863922 -0.2500475743 -1.3231982711
C -4.7387326837 -0.8170369576 -0.2167200393
C -5.0290375812 0.3157918834 0.7830189375
N -3.8197529959 0.9282010198 1.2974858843
C -3.1282043149 0.5452218100 2.4267270387
C -2.0317440001 1.3654577562 2.4855434545
N -2.0286379317 2.2404452104 1.4162215468
C -3.1146140724 1.9451787655 0.7233299369
O -3.8425550202 -1.7840102281 0.3378216347
C -6.0506902814 -1.4867983697 -0.6419492119
C -6.5739517415 -1.2017362465 -1.9057055137
C -7.7612482110 -1.7588439907 -2.3619075018
C -8.4514004917 -2.6197025214 -1.5206846206
Cl -9.9545292104 -3.3434535010 -2.0647461267
C -7.9864524719 -2.9223945749 -0.2488036464
C -6.7926822924 -2.3467103650 0.1751133218
Cl -6.2814587476 -2.7545120207 1.8085210373
C 1.0547973547 -0.3347477253 0.5915576572
C 2.3437884574 0.1547518536 0.8247375422
H 9.0513980124 2.9656522606 -0.9607686517
H 8.8675523346 4.5263407904 -0.1253496013
H 7.5633810119 3.9016387486 -1.1595498233
H 7.3066195856 1.6800677136 -1.4876283175
H 7.3366393746 0.1186322608 -0.6465543956
H 5.2114860553 0.4199993176 -1.8247839413
H 4.9198494321 1.9721541526 -1.0049793893
H 4.5184393649 1.9472459914 1.4972551880
H 4.5576306612 0.3613491657 2.3108636360
H 6.9347967651 0.0915012754 1.8383593243
H 6.6624344309 1.6585862354 2.6438016688
H 3.9528823320 -1.3238533646 -1.7679032628
H 1.6777858292 -2.1395916840 -2.2082124791
H -1.6381005966 -0.2430825384 0.0610002471
H -1.3474198505 -1.7133423874 1.0383271960
H -2.5903846302 -3.0543489737 -0.7199069927
H -2.4304331710 -0.8251513505 -2.4260301453
H -3.8100014982 -1.9743418835 -2.4856819846
H -5.6273452094 1.0709304035 0.2645836962
H -5.6131950638 -0.0736470358 1.6185620408
H -3.4794691222 -0.2529193131 3.0628836787
H -1.2510742983 1.3769307443 3.2338289198
H -3.4501419621 2.4302651554 -0.1841391551
H -6.0258399605 -0.5251367353 -2.5511154253
H -8.1387642924 -1.5243734750 -3.3501114648
H -8.5377969273 -3.5886502414 0.4032548668
H 0.2602271268 -0.0518778049 1.2726149271
H 2.4892571489 0.8055206190 1.6784457506
