45
CONF1071
O 3.8488596917 -0.6146402366 2.5880635801
C 3.4587527570 0.7545149461 2.3810483239
C 2.5538765060 0.9287299870 1.1693653305
O 3.2361023451 0.4558260243 -0.0099597568
C 2.5471372589 -0.6617664881 -0.6135564085
O 3.4525105521 -1.6868137330 -0.9044566815
C 1.9771461729 -0.1765675842 -1.9427927233
O 1.3348912277 -1.2302892091 -2.6647858491
C 1.4815831982 -1.1043157616 0.4202353564
O 1.9691037616 -2.1574740473 1.2454370981
C 1.2223632084 0.1706807475 1.2334294337
O 0.2330396260 1.0387747044 0.6471755419
C -1.0421103238 0.4808263662 0.4974525575
O -1.1469313860 -0.0067559876 -0.8396949534
C -2.4020118820 -0.6801854390 -1.0514762819
C -2.3040599567 -1.3676655021 -2.4030168713
O -1.2953378087 -2.3726363304 -2.4070403549
C -3.5267570301 0.3449665992 -0.9464513335
O -3.4632364629 1.3236133072 -1.9935029634
C -3.4825559528 1.0369851568 0.4259493762
O -4.4670175896 2.0626424708 0.5016886607
C -2.0813002675 1.5773576241 0.7259490377
O -2.0573217473 2.0143508769 2.0809262657
H 4.5593560062 -0.8056021816 1.9598291921
H 2.9267889328 1.0773997586 3.2814874155
H 4.3496128802 1.3807927744 2.2573613957
H 2.3456235718 2.0006717661 1.0553177412
H 3.4090063014 -2.3164994155 -0.1625788379
H 2.8045761154 0.2508996403 -2.5266679115
H 1.2263897287 0.5951924415 -1.7644286772
H 1.9807778290 -1.9452374680 -2.7566057498
H 0.5863309875 -1.4752796509 -0.0820845306
H 2.6058236756 -1.7622183119 1.8803692339
H 0.9226093673 -0.0788822227 2.2597622249
H -1.2000121760 -0.3471249983 1.2127934339
H -2.5428684819 -1.4462399975 -0.2706777739
H -3.2598455938 -1.8589008360 -2.6149189284
H -2.1210469068 -0.6192535291 -3.1864562859
H -0.4294838942 -1.9235749785 -2.4010266290
H -4.4971469346 -0.1519558268 -1.0563617283
H -2.5372311659 1.5907471056 -2.0902421951
H -3.7375717160 0.3013869010 1.2000575960
H -4.3913654258 2.5685839073 -0.3216062808
H -1.8505667012 2.4096952932 0.0404615177
H -1.1964819911 2.4252414273 2.2353632922
