55
CONF12
C 0.6503992015 1.4371974490 -1.8530941499
C 1.4348589532 2.0317247289 -0.6958709240
N 2.7904616552 1.4774912414 -0.6559060475
C 2.7164156579 0.0177513274 -0.5404290271
C 1.9369303633 -0.5714113807 -1.7060052641
N 0.5852598265 -0.0185574164 -1.7341354170
C -0.2536538943 -0.6085304963 -2.7710226495
C -1.7396497637 -0.5851953623 -2.3539682311
C -1.9861854190 -1.6068719878 -1.2910054834
C -1.9383569193 -1.4718745333 0.0486681704
C -2.0175512228 -2.6722538475 0.9069634278
C -2.9362107029 -3.6982542371 0.6583030824
C -2.9413662057 -4.8593954839 1.4195461623
C -2.0348307932 -5.0081504397 2.4665045616
C -1.1412315929 -3.9865574108 2.7607791389
C -1.1371763472 -2.8249501617 1.9884019519
S 0.0542900920 -1.5631033143 2.3739999948
C -0.8316656190 -0.1273491255 1.8399389597
C -1.7317958277 -0.1956484242 0.7598232705
C -2.4352276221 0.9615297262 0.4276629987
C -2.1814746196 2.1681630432 1.0736894797
C -1.2478308569 2.2348478766 2.1036029231
C -0.5917929896 1.0778541330 2.4994451679
C -2.9271165721 3.3841632712 0.6158135717
F -4.2705754982 3.2033006150 0.6610561934
F -2.6283499686 3.6889646743 -0.6785157092
F -2.6429900543 4.4778919432 1.3540450036
C 3.5849307918 2.0732595073 0.4226661416
C 5.0748975356 1.8885245706 0.1548088886
O 5.4197133076 2.3791532398 -1.1339666474
H 1.1251129973 1.7393061996 -2.8091518719
H -0.3641474927 1.8530815241 -1.8365234708
H 1.5021869462 3.1181181920 -0.8270221206
H 0.8887384756 1.8340417628 0.2459233871
H 3.7292283279 -0.3995189644 -0.5433510056
H 2.2246708226 -0.2821098859 0.4063029305
H 2.4882762240 -0.3736278550 -2.6484495867
H 1.8691689843 -1.6576381877 -1.5735200654
H -0.1337825465 -0.0909154447 -3.7422271829
H 0.0546262276 -1.6501183661 -2.9248965781
H -2.3540865975 -0.8166923866 -3.2322321480
H -1.9987397459 0.4275471623 -2.0429358217
H -2.0818435726 -2.6269940534 -1.6620719164
H -3.6555939323 -3.5685789860 -0.1442087668
H -3.6601042777 -5.6429394865 1.2043144034
H -2.0379617884 -5.9089630893 3.0710726159
H -0.4524044008 -4.0824490637 3.5939777406
H -3.1990427967 0.9146554569 -0.3406006472
H -1.0545718655 3.1722739105 2.6109521211
H 0.1041658825 1.1060701298 3.3314357877
H 3.3188319155 1.6586867974 1.4156001757
H 3.3701001066 3.1486298789 0.4414953316
H 5.6508948753 2.4575822038 0.8930218091
H 5.3640900157 0.8298545558 0.2615584713
H 4.6690619175 2.1369842590 -1.6989683373
