26
CONF123
C -2.7983563113 -0.3552210211 0.0130904239
C -1.3724005413 -0.3037655961 0.5537050498
C -0.4580700038 0.5955882477 -0.2942725500
C 0.9355545584 0.8057458322 0.3148236916
C 1.7689005998 -0.4362893714 0.6798168791
C 2.2008967983 -1.3407758834 -0.4792236060
O 1.1188896655 -2.0728060012 -1.0852264544
O 2.9631786910 0.0130459101 1.3384284062
O 1.7049729294 1.6575257656 -0.5481571800
O -0.3783960055 0.1365247049 -1.6457815039
O -1.3768646533 0.1342028187 1.9162877261
O -3.4604897483 0.9088758811 0.1743964782
H -2.7973752531 -0.6765277840 -1.0349503668
H -3.3713831783 -1.0761852456 0.6045229836
H -0.9762084622 -1.3273457062 0.5562736322
H -0.9088891284 1.5965811442 -0.3504638576
H 0.8049409439 1.3610116497 1.2497714515
H 1.2193046287 -1.0325354274 1.4196759069
H 2.9593521985 -2.0355553684 -0.1006029427
H 2.6522921658 -0.7441498271 -1.2791241232
H 3.3300544977 0.7135585037 0.7783969458
H 1.5145954306 1.3720457627 -1.4549609343
H 0.0071625403 -0.7643563396 -1.6111681905
H -1.9592633510 0.9081415277 1.9480750566
H 0.8001872616 -2.7251548182 -0.4474662644
H -3.2029987048 1.4816448624 -0.5581773091
