47
CONF10
C 4.0787897557 -2.8137999321 -1.5287982511
C 4.0078633645 -1.3456862103 -1.3976792445
C 3.0740736721 -0.4819473616 -0.8819403343
C 3.6444625899 0.8097305928 -1.0932027202
N 4.8124328577 0.7367162358 -1.6868941069
O 5.0503806976 -0.6367392647 -1.8654281262
C 3.0788648806 2.1331269890 -0.7717888226
C 1.9923455096 2.6498545666 -1.4914940996
C 1.4336080821 3.8865708739 -1.2039260278
C 1.9690311959 4.6389745912 -0.1643666973
C 3.0409444794 4.1646816717 0.5817397516
C 3.5794070386 2.9216822998 0.2730529609
Cl 4.8949003088 2.3146407634 1.2560553322
Cl 1.3133441442 1.7048130138 -2.7999427016
C 1.7656040736 -0.8747899000 -0.3360590197
O 1.2216813178 -1.9361755038 -0.6493591247
N 1.1841740285 0.0031845138 0.5274693047
C -0.1361554890 -0.2061287985 1.0293268008
C -1.3619467939 -0.2465155846 0.0525023931
N -1.6824890374 -1.5769680906 0.5806094389
C -0.6016880895 -1.6223064481 1.4543549729
O -0.2584826500 -2.4443475230 2.2696932587
C -3.0668973013 -1.8962469992 0.8377316870
C -3.7422829115 -0.5578566136 1.3215754885
S -2.8484024138 0.7923030491 0.3677423040
C -3.4976014864 -0.3957892170 2.8219653761
C -5.2323730843 -0.4741934068 1.0099661201
C -3.7689500598 -2.5116599901 -0.3628786789
O -4.6681553737 -3.3169603270 -0.2632430919
O -3.2991092575 -2.0469331042 -1.5315704591
H 5.1204598307 -3.1394542715 -1.5651244873
H 3.5632623273 -3.2885382934 -0.6927588060
H 3.5792739592 -3.1301633789 -2.4512323154
H 0.5963771193 4.2537757103 -1.7851701067
H 1.5415231540 5.6079499934 0.0698021939
H 3.4530032884 4.7467193925 1.3972657447
H 1.6842406641 0.8277004912 0.8240569536
H -0.3228151523 0.4896747302 1.8519470092
H -1.1035391598 -0.2195988421 -1.0090090627
H -3.1259128438 -2.6321245237 1.6455848871
H -3.8469671728 0.5850479776 3.1542744948
H -2.4375359866 -0.4827547080 3.0766889285
H -4.0503126219 -1.1684652467 3.3687609735
H -5.4337722749 -0.5470427020 -0.0619466783
H -5.7591874551 -1.2840805041 1.5250914752
H -5.6345196733 0.4760650074 1.3720810164
H -3.8009519505 -2.4659448129 -2.2527276969
