41
CONF19
C 1.5524598257 -4.1346358807 1.6322559654
C 2.0391702731 -3.4673406930 0.3731976809
O 1.7674829372 -2.0260844811 0.5326230218
C 2.0997158733 -1.2429274220 -0.4623824691
N 2.6669607659 -1.6413495969 -1.5715835161
C 2.9345213176 -0.7235900844 -2.5067723830
C 2.6699677969 0.6183428373 -2.4505295523
C 2.0495652132 1.0361391302 -1.2661234405
N 1.5872032561 2.2177898154 -0.8425915281
C 1.0947866633 1.9095518974 0.3768377880
N 1.1837287028 0.6498366970 0.7898888310
N 1.8081919657 0.0844011010 -0.2773893575
S 0.1979719104 3.1037734072 1.3879354724
O 0.6026958195 4.4424281276 0.9644200943
O 0.2966601450 2.6490058744 2.7722876435
N -1.4279290879 2.9296361634 0.8951035826
C -2.0512280352 1.6825069967 1.1828870851
C -2.0346931082 0.5972690732 0.2813852139
C -2.5841552796 -0.6305927728 0.6508441689
C -3.1741737770 -0.7911595242 1.8961392697
C -3.2326604773 0.2763477482 2.7828631373
C -2.6785342098 1.4996746487 2.4231756711
Cl -2.8297814998 2.8315650656 3.5435023554
C -1.4553736429 0.6689124610 -1.0918832691
O -0.8863409342 -0.2593677982 -1.6312817029
O -1.6843795464 1.8529090861 -1.6848555917
C -1.1987801755 1.9854659095 -3.0492028663
F 3.5161864352 -1.2226434910 -3.6045630593
H 0.4794045689 -3.9775713773 1.7692661153
H 2.0866300745 -3.7572162748 2.5079730148
H 1.7376846935 -5.2093629981 1.5501740537
H 3.1150650753 -3.5872596933 0.2215903762
H 1.5052369851 -3.8081098166 -0.5177082316
H 2.8982680144 1.3030371835 -3.2553890680
H -1.5115726266 3.2091512660 -0.0825838244
H -2.5489541037 -1.4516147835 -0.0560858112
H -3.6054760434 -1.7457517415 2.1766532147
H -3.7124271650 0.1698881196 3.7489000049
H -1.7024964031 1.2571540055 -3.6879464474
H -1.4515720825 3.0027765333 -3.3426448354
H -0.1190305162 1.8296553875 -3.0783873045
