47
CONF11
C -0.1593944919 2.0179910389 0.9897261883
C -1.0785924086 0.8332543593 1.2762369022
C -2.5550108270 1.2170383051 1.4232383806
C -3.1406997629 1.9049582893 0.2073616756
O -3.0567034535 0.9742967973 -0.9119920546
C -2.9612877564 1.5066990703 -2.1356025697
O -2.9901862644 2.6874671053 -2.3994974995
C -2.8621449377 0.4319405094 -3.2211410464
C -4.2547659600 0.1225001549 -3.7511705684
O -2.3167207439 -0.7990667838 -2.7567320671
C -1.0300536419 -0.7997446600 -2.2949041245
C -0.6011303163 -2.0044223127 -1.7292606840
C 0.6842794584 -2.1196757015 -1.2283856570
C 1.5386674542 -1.0263997077 -1.2903230302
C 1.1310657834 0.1689577994 -1.8502000387
C -0.1611852442 0.2906526107 -2.3592474809
O 2.8672756024 -1.1580158817 -0.8606510627
C 3.1291747551 -1.0449310322 0.4660095821
C 4.4668904294 -1.2335961275 0.8476657609
C 4.7698734699 -1.1149766797 2.1850275987
C 3.7455793145 -0.8150263553 3.0923385671
C 2.4581577875 -0.6504606242 2.6051383582
N 2.1486196834 -0.7646608502 1.3081756140
C 4.0670417124 -0.6848452543 4.5456053910
F 5.0099400762 0.2680813550 4.7651159744
F 4.5697547906 -1.8405491574 5.0533126863
F 2.9861801060 -0.3585198552 5.2863751027
H -0.2737180399 2.8054577492 1.7440888792
H 0.8844995035 1.6930742190 0.9866861935
H -0.3630692874 2.4597981933 0.0085701700
H -0.9693377419 0.0851844861 0.4838269027
H -0.7593447030 0.3404249132 2.2020409115
H -3.1500781657 0.3250045157 1.6523547121
H -2.6786544665 1.9072099133 2.2691571958
H -2.6052499336 2.8201319758 -0.0570893288
H -4.1977683498 2.1545837556 0.3505400001
H -2.2409632949 0.8524072743 -4.0235856784
H -4.7175420383 1.0370756490 -4.1290285539
H -4.8752301891 -0.2940175192 -2.9533381959
H -4.1847143379 -0.6060211221 -4.5622325111
H -1.2950333013 -2.8364528566 -1.6884675510
H 1.0271919281 -3.0473952096 -0.7836267923
H 1.8177417554 1.0075177072 -1.8863464844
H -0.4659762509 1.2377537311 -2.7883867669
H 5.2172072915 -1.4623670997 0.1006167794
H 5.7883979649 -1.2502241390 2.5346428478
H 1.6370160261 -0.4152926480 3.2773567158
