84
CONF6
C 1.0868457800 0.9477641449 0.1962814656
C -0.3091932153 1.1667565488 -0.3934989411
C -1.3770746444 0.9046662576 0.6585211800
O -2.6959443462 1.0072387440 0.0621835489
C -3.2467413388 2.2451869614 0.0092691407
O -2.6952691490 3.2453551999 0.4197916935
C -4.5975991502 2.2227855239 -0.6043672345
C -5.1516796074 1.0469588368 -1.1144477707
C -6.4248849035 1.0866024112 -1.6807286912
O -7.0627018688 0.0146387376 -2.2240662262
C -6.3860952248 -1.2380100310 -2.1728792758
C -7.1450734331 2.2912781998 -1.7192860224
O -8.4175159465 2.3072635588 -2.2113286689
C -8.4910908211 2.6693828475 -3.5992531366
C -6.5659982986 3.4659350983 -1.2113879159
O -7.3377127531 4.5810569744 -1.3130557850
C -6.8029605480 5.7905405460 -0.7791048010
C -5.2919004865 3.4318527584 -0.6509148997
C -1.2895503429 -0.4961541570 1.2485566353
O -2.1836491811 -0.6298992796 2.3516065529
C -3.3674436945 -1.3684793958 2.0643435024
C 0.1161413487 -0.7518319389 1.7941020043
C 0.2104512030 -2.1776938677 2.2931048898
O -0.4576702402 -3.1099525629 1.9078207581
O 1.2097677966 -2.3013216304 3.1979415627
C 1.4113766969 -3.6380737822 3.7036953449
C 1.2411260208 -0.4704096046 0.7703907643
C 1.2918865711 -1.4956282833 -0.3642935548
C 2.3785482822 -1.1618880888 -1.3892160872
N 2.2143792695 0.2178381868 -1.8921449594
C 3.2680775270 0.5184941054 -2.8733072388
C 4.7023045178 0.5243525162 -2.2924076834
C 4.8512757877 -0.5923294175 -1.3120898936
C 3.7854543938 -1.3434760039 -0.8940354541
N 4.2175679155 -2.2847271427 0.0299803605
C 5.5729578523 -2.1331568943 0.2300759598
C 6.0067988991 -1.0664860627 -0.6063388379
C 7.3567993783 -0.7148701153 -0.5830010890
C 8.2369938868 -1.4014479922 0.2456144791
C 7.7764567831 -2.4519672584 1.0613471112
O 8.5836355933 -3.1745157243 1.9020467011
C 9.9624119704 -2.8332997559 1.9489203124
C 6.4355025215 -2.8316101903 1.0626385526
C 2.2073343133 1.2090018077 -0.8090324544
H 1.2211267296 1.6617495782 1.0217917389
H -0.4072075056 2.1979956446 -0.7481774152
H -0.4706501052 0.5101177719 -1.2544596532
H -1.3087979444 1.6400387638 1.4688583666
H -4.5814527354 0.1303107708 -1.0742948676
H -7.0609563650 -1.9572842338 -2.6384615488
H -5.4420482229 -1.2065783435 -2.7323707470
H -6.1874339858 -1.5411286845 -1.1365829356
H -7.9464781344 1.9428646227 -4.2150506607
H -8.0859625793 3.6757459255 -3.7597726735
H -9.5500216350 2.6535426867 -3.8634424551
H -5.8798728964 6.0814691382 -1.2964464977
H -6.6059441923 5.6962581143 0.2960878807
H -7.5688101306 6.5492745186 -0.9442508610
H -4.8125045984 4.3119032995 -0.2438094621
H -1.5306081373 -1.2395780067 0.4751964422
H -3.9254251984 -1.4346040002 3.0014753734
H -3.1193979046 -2.3822297693 1.7203892409
H -3.9890013738 -0.8609652324 1.3143556198
H 0.2670212446 -0.0846185987 2.6519574569
H 2.2515859173 -3.5650853711 4.3937663153
H 1.6381233245 -4.3283956185 2.8863120484
H 0.5139072855 -3.9859582569 4.2214215569
H 2.1974747977 -0.5142890680 1.3086975083
H 1.4577635540 -2.5051418741 0.0310814914
H 0.3334840180 -1.5401180469 -0.8900562684
H 2.2220225498 -1.8259982409 -2.2543270848
H 3.0439567882 1.4876312819 -3.3346744761
H 3.2031093549 -0.2420063966 -3.6616777239
H 4.9237706596 1.4885466707 -1.8120710504
H 5.4198846985 0.4268874630 -3.1172385928
H 3.6315163859 -2.9409116930 0.5141982335
H 7.7268395929 0.0929775337 -1.2072321417
H 9.2813808015 -1.1172957678 0.2537523696
H 10.4443146130 -2.9666464010 0.9710132695
H 10.4142168236 -3.5179883752 2.6685643630
H 10.1103973680 -1.7999251244 2.2904140788
H 6.1096210035 -3.6459723219 1.7007122291
H 2.0708454791 2.1970605117 -1.2676325329
H 3.1638684349 1.2306238460 -0.2550939463
