49
CONF69
C -3.5047162666 1.3786345491 0.2491197698
C -3.1681252230 0.5027789125 1.4382759023
C -1.7096390510 0.3746725151 1.9205485475
C -2.4559007056 -0.8021946440 1.2442054456
C -2.7576425932 -1.9805293211 2.1496409578
C -2.0445012507 -1.2538548226 -0.1406858807
C -0.5881376677 1.0506684776 1.2742287614
O -0.4518700751 1.3676234063 0.1097592219
O 0.3949726990 1.3039502842 2.2146620563
C 1.6167627831 1.8766910923 1.6770913764
C 2.1952006772 2.6660837080 2.7626433430
N 2.6742860050 3.2930410794 3.6055015487
C 2.5490084798 0.7868544899 1.1961327660
C 3.2434974610 -0.0100919705 2.1077771210
C 4.0384494114 -1.0501378896 1.6376558067
C 4.1292126356 -1.3118480149 0.2737352114
C 3.4243554037 -0.5121965460 -0.6213309513
C 2.6439958845 0.5501304257 -0.1724561505
O 3.5858389591 -0.7803123745 -1.9648765001
C 2.5110820849 -0.5760992910 -2.8207528323
C 2.7878613485 -0.0038263553 -4.0571675591
C 1.7549090247 0.1501779283 -4.9788079685
C 0.4605895548 -0.2568121011 -4.6627206302
C 0.2021051042 -0.8303933018 -3.4183996792
C 1.2252239270 -0.9992050012 -2.4902968387
C -4.1981048562 0.6505373072 2.5426093055
H -2.7805716793 1.3142156617 -0.5597213580
H -3.5681540670 2.4256914625 0.5649024029
H -4.4878200299 1.0863476674 -0.1374376215
H -1.5886619961 0.2707774879 2.9936485444
H -2.9459310102 -1.6897232759 3.1836610358
H -3.6381419459 -2.5168638466 1.7767446581
H -1.9126112495 -2.6771216435 2.1436314349
H -1.2085835685 -1.9585828365 -0.0674612070
H -1.7380126252 -0.4380078152 -0.7922730915
H -2.8838615207 -1.7790908724 -0.6109352704
H 1.3690656465 2.5565511988 0.8534552807
H 3.1633959576 0.1794689568 3.1737620929
H 4.5862746672 -1.6718039193 2.3382209684
H 4.7364009711 -2.1276739393 -0.1040205395
H 2.1037077635 1.1730063676 -0.8759902772
H 3.8005532574 0.3118626810 -4.2853808384
H 1.9656313142 0.5968215562 -5.9454452970
H -0.3420960178 -0.1307602725 -5.3816959163
H -0.8015950355 -1.1594224433 -3.1673482953
H 1.0289014170 -1.4524054920 -1.5239919845
H -3.9211997262 0.1330312529 3.4618415767
H -5.1641994170 0.2582036025 2.2043973664
H -4.3312052521 1.7111357283 2.7810131870
