49
CONF10
C -4.2446837630 -0.4342969224 -0.3943079002
C -3.2109635551 -1.2916097413 0.3049338470
C -1.8963693243 -0.6581791378 0.8110379833
C -1.9238447974 -1.6420757337 -0.3800689170
C -1.2614778363 -2.9812482351 -0.1199677591
C -1.6359546023 -1.1392022120 -1.7787224487
C -1.5943116598 0.7624666984 0.6562944472
O -1.8947642844 1.5231747888 -0.2400722840
O -0.8620757397 1.1923523266 1.7495226989
C -0.4954733392 2.5837642209 1.7084413878
C -0.1515862680 2.9375880286 3.0875780346
N 0.1411828896 3.2508851103 4.1598749075
C 0.6766695971 2.8640550640 0.7845728128
C 1.6971962264 1.9261268368 0.6614079916
C 2.7758160783 2.2163374708 -0.1696561343
C 2.8554977194 3.4280388544 -0.8509098001
C 1.8306353217 4.3566714569 -0.7060959849
C 0.7329582791 4.0781718881 0.1032491040
O 3.8478530388 1.3563747026 -0.2922890251
C 3.6048660591 -0.0080984577 -0.3574534770
C 2.6064968285 -0.5288440604 -1.1779724862
C 2.4670081100 -1.9100892641 -1.2726181892
C 3.3099469497 -2.7597077251 -0.5575138368
C 4.3043490990 -2.2198430954 0.2550843279
C 4.4566182793 -0.8395489430 0.3609813607
C -3.8614270787 -2.2744024035 1.2601451489
H -4.8634939916 0.0801709353 0.3489950872
H -4.9024048120 -1.0820131645 -0.9852599042
H -3.8154924292 0.3183304422 -1.0517775584
H -1.5144223979 -1.0784504659 1.7355138447
H -1.3721254172 -3.3200448756 0.9104844929
H -1.6904935555 -3.7428622804 -0.7815872393
H -0.1904720554 -2.9107505039 -0.3373582473
H -2.0524551961 -1.8458647927 -2.5056650993
H -0.5531974933 -1.0943320729 -1.9394360074
H -2.0443204058 -0.1512285096 -1.9816609064
H -1.3560194323 3.1914241486 1.4029451642
H 1.6548360406 0.9845202602 1.1987067509
H 3.7116910562 3.6259093253 -1.4867602382
H 1.8817162030 5.2984774187 -1.2425210313
H -0.0752666138 4.7961094465 0.2016867826
H 1.9587265014 0.1372513479 -1.7388748531
H 1.7009808705 -2.3234350022 -1.9211664191
H 3.1943621941 -3.8354971949 -0.6379662132
H 4.9661427517 -2.8734320551 0.8146210450
H 5.2258290620 -0.4018847998 0.9885401646
H -4.5339296745 -1.7380209187 1.9379793275
H -4.4612659946 -2.9982908538 0.6961421847
H -3.1430864272 -2.8249463452 1.8686125896
