53
CONF4
C 0.6250256700 0.1067093091 -0.5588441311
C -0.1574539295 1.3845498312 -0.8814673594
C -1.5156086549 1.4768456569 -0.2284027510
C -2.0972411329 0.3925356627 0.4457833134
C -3.3656374641 0.5552302989 1.0174662110
C -4.0553050891 1.7583271335 0.9111214100
O -5.3007066970 1.9402302541 1.4554909382
C -3.4859301778 2.8355535998 0.2333628919
C -2.2262682710 2.6783256033 -0.3236769090
C -1.3211569803 -0.9080965372 0.6566360272
C -2.2255921229 -2.1500971887 0.7276350685
C -2.9524251737 -2.4178044482 -0.5910905259
C -1.9503189565 -2.5857027197 -1.7361675238
C -1.0203050464 -1.3728676267 -1.8269766814
C -0.3016317876 -1.1152540352 -0.5036731620
O 0.5179679716 -2.2704790710 -0.2470976364
C -0.5234520763 -0.7623903535 1.9722392615
C 0.5448897058 0.3217094237 1.8827801634
N 1.3995389836 0.1179634587 0.7021899464
C 2.5303987464 1.0534621806 0.7139578519
C 3.5055636790 0.8476556444 -0.4275458574
C 4.1807203862 -0.5379393821 -0.5883393179
C 5.4922445092 0.1972719578 -0.9662326052
C 4.9216462347 1.4680782455 -0.2850461405
H 1.3432790434 -0.0751561534 -1.3665041111
H 0.4420236612 2.2632384498 -0.6124644221
H -0.2838908330 1.4417541687 -1.9709410069
H -3.8327332910 -0.2640303868 1.5556930247
H -5.5801114965 1.1238334598 1.8902342808
H -4.0277160964 3.7724974444 0.1540795856
H -1.7724144191 3.5156044336 -0.8486762115
H -1.5801681600 -3.0053894610 0.9585992930
H -2.9326807732 -2.0665828503 1.5601223809
H -3.5745651869 -3.3156920946 -0.4977454045
H -3.6277008641 -1.5822758982 -0.8195520405
H -2.4781527076 -2.7153075559 -2.6881051918
H -1.3557446844 -3.4922920571 -1.5720415514
H -1.6121259325 -0.4905239534 -2.0954002877
H -0.2655580678 -1.5154584463 -2.6103315367
H 1.2376023527 -1.9283660788 0.3148355447
H -0.0522884937 -1.7245692850 2.2054671589
H -1.2158585161 -0.5290634869 2.7895772380
H 1.1855298716 0.2789316901 2.7717871572
H 0.0770693201 1.3236992519 1.8742026074
H 2.1948106713 2.1100023932 0.7260160192
H 3.0651243842 0.8877398437 1.6594443363
H 3.0730650721 1.1671488493 -1.3828863073
H 3.7518984796 -1.2388881368 -1.3104903392
H 4.2672418124 -1.0347963527 0.3844331153
H 6.4332178513 -0.2067010086 -0.5831049352
H 5.5754061276 0.3307363837 -2.0490121804
H 5.2192849953 1.5202794433 0.7680643807
H 5.1071938705 2.4358105120 -0.7594026607
