46
CONF165
C -2.0763228402 4.2285179889 0.0498960506
C -2.9826950964 3.3294549642 -0.7884486229
C -2.8528976728 1.8568788783 -0.3951250686
C -3.7721563879 0.9835128632 -1.2270022886
O -3.6731522897 -0.4142672499 -0.8024919751
C -2.6785290277 -1.1373759230 -1.3288509405
O -1.8770016829 -0.7431719424 -2.1482427105
C -2.7247469036 -2.5666947719 -0.7858424079
C -3.6480458665 -3.4115802280 -1.6507809448
O -1.4284837568 -3.1625253346 -0.8563216934
C -0.4358782961 -2.6463774050 -0.0683885963
C -0.6124947303 -1.6133739566 0.8555229964
C 0.4763286214 -1.1668269407 1.6030812854
C 1.7149037719 -1.7559958039 1.4227627104
C 1.9027362444 -2.7895876403 0.5133307192
C 0.8228906358 -3.2341275079 -0.2341105308
O 2.7932843167 -1.3363672824 2.2162353096
C 3.6136096647 -0.3815267583 1.7095080383
C 4.7057815211 -0.0148727493 2.5092480530
C 5.6125021362 0.9409375064 2.1203661377
C 5.4303616936 1.5683169047 0.8762022039
C 4.3460605631 1.2192545749 0.0616319040
C 3.4446520968 0.2508049269 0.4772011452
C 6.3518984828 2.5588654301 0.4475097396
N 7.1030214101 3.3681831073 0.0935967532
F 4.8575211884 -0.6305350318 3.6989822682
H -2.1757989874 5.2774303868 -0.2455058216
H -2.3266670968 4.1514263026 1.1135078895
H -1.0257551181 3.9417998812 -0.0689620247
H -4.0276110934 3.6449545332 -0.6727053228
H -2.7364843861 3.4434373370 -1.8518399720
H -1.8153950220 1.5274260233 -0.5304493388
H -3.1019727866 1.7315346367 0.6660183418
H -4.8218166594 1.2391862777 -1.0657315729
H -3.5383229452 1.0462100153 -2.2934813061
H -3.0838321360 -2.5529014484 0.2506511432
H -3.2959729486 -3.4176032567 -2.6860262263
H -3.6670689317 -4.4354400306 -1.2699244236
H -4.6612780778 -3.0042086713 -1.6189759630
H -1.5760138726 -1.1435483566 1.0131976182
H 0.3570145546 -0.3613838148 2.3202304820
H 2.8848320866 -3.2349310557 0.3922247417
H 0.9396750947 -4.0383790294 -0.9527390367
H 6.4437207587 1.1942763795 2.7683514099
H 4.2101404061 1.7077930865 -0.8962136615
H 2.6054596560 -0.0165999002 -0.1540737945
