59
CONF2
C -2.7247769388 0.4718394171 4.3566413253
O -2.5891797483 0.3557073563 2.9347226714
C -1.3444726258 0.1884436162 2.4085430629
C -1.2434350644 0.0685631355 0.9967227617
C 0.0389390096 -0.0963721094 0.4791511220
C 1.2008063727 -0.1496035043 1.2663144506
C 1.0556762861 -0.0385465810 2.6492192575
C -0.2022054145 0.1321579151 3.2125087396
C 2.5260440822 -0.3042712090 0.6398734838
C 2.8030573192 0.2502555611 -0.6002766382
C 4.0657353912 0.1034096340 -1.2105239306
C 5.0897467008 -0.6298105297 -0.5313216538
C 4.7941428565 -1.1884292715 0.7374582853
C 3.5553629425 -1.0306861647 1.3031461811
C 6.3538018490 -0.7772283107 -1.1380482185
C 6.6106240522 -0.2153663407 -2.3760038996
C 5.5969028235 0.5171522622 -3.0464432555
C 4.3603533795 0.6716248996 -2.4778158618
C 7.9238962022 -0.3509497905 -3.0393703552
O 8.8151582808 -1.0671692029 -2.3175980211
O 8.1986874131 0.1261889136 -4.1271138559
C -2.4667863954 0.1119208628 0.0782603182
C -3.4524171474 -1.0361206605 0.4212250519
C -4.6954899866 -0.9717269919 -0.4782441780
C -4.2797493103 -1.1365138905 -1.9447278437
C -3.3145227967 -0.0047512915 -2.3192538781
C -4.0213649329 1.3467541619 -2.1559290692
C -4.4376412087 1.5175693393 -0.6902612814
C -5.3941200703 0.3836067794 -0.2904888842
C -3.1927035411 1.4774524595 0.2073887685
C -2.0785600666 -0.0548898387 -1.4089003530
H -3.7936251963 0.5911225956 4.5370776028
H -2.1873406955 1.3494133581 4.7341209512
H -2.3638767205 -0.4309312048 4.8627426766
H 0.1566300642 -0.2157212017 -0.5897376542
H 1.9245862048 -0.0521884014 3.2998211801
H -0.2835505243 0.2322270786 4.2874201868
H 2.0480336508 0.8351656669 -1.1178809576
H 5.5643707033 -1.7559753695 1.2524324910
H 3.3446619298 -1.4892329471 2.2639571855
H 7.1220931037 -1.3380409677 -0.6165940798
H 5.8191794628 0.9500324068 -4.0154670120
H 3.5850953934 1.2315557581 -2.9930592289
H 9.6429070638 -1.1068782166 -2.8247739711
H -2.9352931589 -1.9949438844 0.2795928582
H -3.7542702948 -0.9743140796 1.4695658760
H -5.3806630021 -1.7809435845 -0.1937243653
H -5.1632070228 -1.1088573297 -2.5965343997
H -3.7929098419 -2.1102169934 -2.0892099777
H -2.9872787598 -0.1272082785 -3.3598390932
H -4.9022923564 1.3929828741 -2.8100912203
H -3.3472319791 2.1618926131 -2.4508869720
H -4.9391812603 2.4851138771 -0.5575461134
H -5.7021243473 0.5047133830 0.7568225460
H -6.3016017616 0.4251100665 -0.9075136173
H -2.4938063094 2.2735920033 -0.0833817950
H -3.4824785708 1.6541559232 1.2461156022
H -1.3838712232 0.7424819654 -1.7046343334
H -1.5644652489 -1.0143178533 -1.5542876824
