49
CONF29
C -3.6408893137 -2.5850157363 -0.3365375600
C -4.0564859605 -1.3656996657 0.4596581952
C -3.1365259130 -0.1304464777 0.5211901706
C -3.3765493965 -1.0344231573 1.7544350570
C -4.1544013904 -0.3896955944 2.8848348956
C -2.2538303099 -1.9054090334 2.2766129055
C -1.8390532280 -0.0590123885 -0.1454664024
O -1.0458577307 -0.9443905316 -0.3892318740
O -1.5797700695 1.2558046216 -0.4926029833
C -0.2773886578 1.4695697680 -1.0706906147
C -0.3570557827 2.7654945372 -1.7473214879
N -0.3806383902 3.7921467951 -2.2756356002
C 0.8229946881 1.4831290126 -0.0244674694
C 2.0411458644 0.8798798340 -0.3202367311
C 3.0557182892 0.9083923574 0.6345773126
C 2.8545933224 1.5101788321 1.8742182820
C 1.6263891248 2.0996359321 2.1538987031
C 0.6076903240 2.1022725446 1.2057941489
O 4.2679130753 0.2825977922 0.4402344026
C 4.7936040939 0.2138091851 -0.8434453915
C 5.3189853309 -1.0068326079 -1.2502886518
C 5.9299710189 -1.0980949636 -2.4987857726
C 6.0053478166 0.0171211263 -3.3297818636
C 5.4738576050 1.2338130997 -2.9038361921
C 4.8684680206 1.3426494398 -1.6557375443
C -5.5314828774 -1.0599014446 0.2761776738
H -3.8797409017 -2.4356747609 -1.3951748431
H -4.2129827080 -3.4511387838 0.0156450986
H -2.5804851513 -2.8154913349 -0.2615421745
H -3.6523309411 0.8235160316 0.5554631506
H -3.4642325674 0.1284032883 3.5591323245
H -4.8924980969 0.3348019397 2.5393592597
H -4.6746711671 -1.1610913488 3.4647493973
H -1.6281881997 -2.3267532571 1.4925294140
H -2.6820860368 -2.7277270461 2.8612681479
H -1.6106388700 -1.3207243249 2.9436091584
H -0.0670868325 0.7005682061 -1.8239180348
H 2.1957954516 0.3852065890 -1.2736033248
H 3.6582243357 1.5078450816 2.6027893085
H 1.4683565499 2.5722241922 3.1178290164
H -0.3460206252 2.5718106106 1.4215457697
H 5.2476192907 -1.8655164856 -0.5909867295
H 6.3430507486 -2.0483993153 -2.8220514475
H 6.4784880683 -0.0590876679 -4.3031556584
H 5.5378186374 2.1094612456 -3.5421913541
H 4.4610909599 2.2884500496 -1.3134506552
H -5.7659838498 -1.0025974408 -0.7920447152
H -6.1343104886 -1.8663413341 0.7097870365
H -5.8359361863 -0.1193163902 0.7365157467
