44
CONF13
C -4.4549255304 1.3396220445 2.5106635157
N -3.3132072948 1.1357739162 1.6105635168
C -3.6136538579 1.5752378282 0.2287302857
C -4.5347022191 0.4696178932 -0.3595676539
C -4.1395087855 -0.8012867972 0.4365221469
C -3.0270993533 -0.3013595061 1.4006564698
C -1.6347580071 -0.4079092183 0.7635025848
C -1.6317011425 0.2937525597 -0.5911793783
C -2.2806594946 1.6682650200 -0.5260020410
O -0.2504805950 0.4977698516 -1.0447334952
C 0.3683784112 -0.5355106515 -1.6275507516
O -0.1625801020 -1.6057043847 -1.8714118786
C 1.8185471219 -0.2074988813 -1.9327049496
C 2.4260907646 -1.2629173942 -2.8740066462
O 2.5143059966 -2.5595865458 -2.2905693457
C 2.6197158611 -0.0418853828 -0.6567807952
C 2.3876353128 -0.8503371759 0.4591049772
C 3.1673905166 -0.7152045189 1.6048562246
C 4.1927488164 0.2269840070 1.6477644618
C 4.4317417620 1.0353040920 0.5383367274
C 3.6483118341 0.9021026201 -0.6050824378
H -4.6574594173 2.4122395982 2.5968689370
H -5.3843252221 0.8423861953 2.1851833939
H -4.1996142983 0.9601825228 3.5056038879
H -4.0945631584 2.5583714130 0.2441141848
H -5.5860784486 0.7226893700 -0.1994726530
H -4.3885353767 0.3558276883 -1.4379197192
H -3.7806088215 -1.6100299775 -0.2071852749
H -4.9897268916 -1.1900667722 1.0031246328
H -3.0330571828 -0.8290581534 2.3596324653
H -1.3497617898 -1.4584327832 0.6438215545
H -0.9032411463 0.0765512140 1.4206243940
H -2.1296950551 -0.3277534233 -1.3406039071
H -1.6195103809 2.3611319366 0.0062445265
H -2.4404378426 2.0527012686 -1.5393839633
H 1.8382477542 -1.2887793360 -3.8027786018
H 3.4474419254 -0.9584095375 -3.1208615507
H 2.9728950132 -1.3480245000 2.4654000583
H 4.7996588252 0.3331132205 2.5414913650
H 5.2255169694 1.7756590392 0.5640688340
H 3.8349631074 1.5368571140 -1.4672113932
H 1.5909230474 -1.5889331122 0.4387588947
H 1.8270517874 0.7500051018 -2.4689422405
H 1.6033579222 -2.8312855417 -2.1058687782
