45
CONF241
C 3.9025589857 0.5383852493 4.5982668107
C 4.3951579857 -0.5068524978 3.5999911273
C 3.3969724650 -0.7603280974 2.4704427656
C 3.8943588235 -1.7916829281 1.4568950055
C 2.8693562313 -2.1642516054 0.3820840980
C 2.4491920281 -0.9934321370 -0.5064672536
C 1.5241026169 -1.4173435143 -1.6451296854
C 1.0338640107 -0.2507646230 -2.5239571930
C 0.1425907187 0.7355574380 -1.8100458498
C 0.6851495030 1.8865843958 -1.2459455668
N -0.1863180446 2.7230318673 -0.6201963186
C -1.5523200273 2.4630383141 -0.5320697090
N -2.1221395917 3.4599029584 0.1568300697
C -1.0796234734 4.2639757481 0.4489799055
N 0.1273739317 3.8832367819 0.0120814766
N -2.0929729705 1.3739130457 -1.0774130877
C -1.2641211843 0.5408374410 -1.7006371620
C -1.9010218261 -0.6653136349 -2.3555135070
C -3.3779119738 -0.8548793056 -2.0328243035
N 1.9816204028 2.3007692376 -1.2992134640
H 4.6285334559 0.7017680610 5.4003561287
H 2.9592395600 0.2256214836 5.0584597443
H 3.7263029480 1.5004778023 4.1052103071
H 4.5964134903 -1.4513538479 4.1222399325
H 5.3528104407 -0.1854762294 3.1692453784
H 3.1841021988 0.1930389298 1.9683812222
H 2.4425716626 -1.1003234471 2.8974255461
H 4.1883307636 -2.7023513940 1.9950503244
H 4.8072912151 -1.4148757071 0.9741471450
H 1.9755132192 -2.5860893943 0.8618391669
H 3.2854830090 -2.9598686431 -0.2500319441
H 3.3560486003 -0.5261323280 -0.9238276073
H 1.9448969150 -0.2341705123 0.1038689172
H 2.0424448730 -2.1446623251 -2.2835800110
H 0.6583165844 -1.9390727440 -1.2183348306
H 1.9020724057 0.2696399335 -2.9494181587
H 0.4952754756 -0.6585598697 -3.3847576632
H -1.1883774031 5.1835003827 1.0109197663
H -1.3389029870 -1.5644360299 -2.0772385382
H -3.9663552381 0.0059405074 -2.3553134660
H 2.6879689426 1.5952275851 -1.4170427637
H 2.2132735869 3.0705604370 -0.6871367514
H -3.7555944488 -1.7495973181 -2.5364045103
H -1.7693241003 -0.5672583161 -3.4430696090
H -3.5323792968 -0.9671176012 -0.9569403390
