42
CONF9
C -3.7608062667 3.8935579386 1.4214648643
C -3.7675797066 2.5343011944 1.7165006140
C -2.7040441519 1.7222576449 1.3225699704
C -1.6215347099 2.2618801757 0.6292307966
C -1.6193257747 3.6315538923 0.3423868777
C -2.6789154536 4.4415881733 0.7328005984
C -0.4378132133 1.4331539364 0.1721567575
C -0.3398380732 0.0344233417 0.7453111421
C 0.6076491114 -0.2670504410 1.7256008967
C 0.7276157941 -1.5643734580 2.2148453039
C -0.0968953936 -2.5750854220 1.7253399434
C -1.0525641430 -2.2808974715 0.7552536273
C -1.1732468026 -0.9835188947 0.2681541482
C -0.3682560292 1.3154702677 -1.3553960128
O -1.2340840701 1.7095374545 -2.1031814622
C 0.8560315801 0.5974203419 -1.9367768169
C 0.5246081209 -0.8547063831 -2.3544550069
O -0.3983973768 -1.1949471848 -3.0623137878
C 1.5583242102 -1.7292123356 -1.7617501147
C 1.6878587093 -3.1088534309 -1.8772570753
C 2.7635768316 -3.7128325146 -1.2335504685
C 3.6846283913 -2.9549083085 -0.4961046894
C 3.5516604282 -1.5746438144 -0.3827355751
C 2.4749376129 -0.9738531256 -1.0250600885
C 2.1027583471 0.4550209533 -1.0615705433
O 2.6980266783 1.3723071277 -0.5271978756
H -4.5885919948 4.5246152569 1.7294590335
H -4.6013769127 2.0986366236 2.2585531305
H -2.7199896814 0.6658005396 1.5678666547
H -0.7770175291 4.0635922391 -0.1917884768
H -2.6600917630 5.5023580601 0.5021636479
H 0.4771395004 1.9697580798 0.4584378339
H 1.2638674158 0.5167520332 2.0934803448
H 1.4729571942 -1.7879624726 2.9717523786
H 0.0048931799 -3.5891717005 2.0988607307
H -1.6993342476 -3.0633746183 0.3710714326
H -1.9176042552 -0.7591304128 -0.4915474052
H 1.1230209026 1.1487812388 -2.8480854712
H 0.9713930003 -3.6894188605 -2.4488829914
H 2.8957502251 -4.7877669440 -1.3012617424
H 4.5121589036 -3.4577151818 -0.0062734980
H 4.2584527188 -0.9833438296 0.1899803629
