39
CONF38
C -0.5327553269 -5.1129536009 2.7623186608
C -0.6739899981 -4.0795645933 1.6860198533
C -1.7367073411 -3.1694903405 1.6668888479
C -1.8706264302 -2.1848005168 0.6729181692
C -0.9311775182 -2.1891372433 -0.3698123049
C 0.1200563233 -3.0908710690 -0.3944499436
C 0.2483311345 -4.0067460523 0.6404034760
Cl -1.1004503432 -1.0590396539 -1.6989779429
N -2.9456439073 -1.2614170628 0.7198968636
S -2.7345732924 0.1639549243 1.6443100660
O -4.0100244500 0.8742108184 1.5619983932
O -2.1311810557 -0.2275437631 2.9165257487
C -1.5095662521 1.1291148895 0.7529429816
N -0.2193727045 0.9002672064 0.9811974974
N 0.3380907636 1.7131047435 0.0482088194
C 1.6744796930 1.8961930596 -0.2067733509
C 1.9859848612 2.7748751687 -1.2135908522
C 0.9260720626 3.4182695290 -1.9038177574
N -0.3630281615 3.2413314846 -1.6603747931
C -0.6462577917 2.3807063736 -0.6817782002
N -1.8442115857 1.9978885883 -0.2202628904
O 1.3143689079 4.2568022323 -2.8675218640
C 0.2785571591 4.9440464309 -3.6112925298
O 2.4782205108 1.1884666474 0.5616211961
C 3.9040602351 1.3367438241 0.3339977458
Cl -2.9737812562 -3.3100405655 2.8941286124
H 0.3759491013 -5.6968105157 2.6066357893
H -0.4874434900 -4.6467203177 3.7517044290
H -1.3898506469 -5.7945786353 2.7669022901
H 0.8332267763 -3.0723356159 -1.2099708106
H 1.0805946000 -4.7031544552 0.6283242877
H -3.3271790528 -1.0177869397 -0.1936183707
H 3.0097015570 2.9824187424 -1.4896909179
H 0.8154525139 5.5653763316 -4.3267548715
H -0.3243969393 5.5601786695 -2.9403592256
H -0.3585245246 4.2225997307 -4.1282515333
H 4.2014594779 2.3748892412 0.5046898654
H 4.1521839435 1.0216469756 -0.6830961256
H 4.3739532412 0.6799060174 1.0630216833
