65
CONF370
C -4.6264753051 -0.1132438639 -3.8267414518
C -3.2469209652 0.3529365869 -3.3659770935
C -3.0257990296 0.1757576348 -1.8596220710
C -2.9982388285 -1.3030780416 -1.4299860090
C -1.7153865003 0.7993623596 -1.4321375014
O -0.7264948082 0.8980173222 -2.1353515172
O -1.7582229825 1.1857707561 -0.1413629276
C -0.5257763494 1.7143806329 0.4437734278
C -0.4390130037 3.2099728387 0.1940001897
C 0.8866952987 3.7607881614 0.7396366294
C 1.1778776224 3.1968195522 2.0983095623
C 0.5429359864 2.1428551060 2.6468356597
C -0.5747778467 1.4036133004 1.9317094289
C -0.5095994620 -0.1058223857 2.2553098050
C -0.6864142966 -0.2758554362 3.7783818863
C 0.3263635791 0.5595027310 4.5130240338
C 0.8905910861 1.6523675590 3.9714456463
C -0.6722971617 -1.7360921499 4.2371248695
C 0.7839014723 -0.7416616926 1.6984871010
C 0.5199341230 -1.6000433279 0.4597278381
C 1.7715747937 -1.9845268102 -0.3004278778
C 1.5039432137 -2.9517061362 -1.4438234505
C 2.6797996418 -3.0431924955 -2.4286697262
C 3.8740105809 -2.2152655990 -1.9308107204
C 3.4219781296 -0.8182574224 -1.6148134237
O 3.9399702427 0.2016195212 -2.0267256897
O 2.3239035371 -0.7284930291 -0.8381227572
O 2.2143925203 -2.5248527889 -3.6867968055
C 2.0642128543 3.5045815826 -0.2190559556
H -5.4195456583 0.3982283164 -3.2698946134
H -4.7683173101 0.1043629855 -4.8895610611
H -4.7588791869 -1.1905425110 -3.6901233744
H -2.4645268244 -0.1925809727 -3.9061477429
H -3.1195018744 1.4131553877 -3.6158619659
H -3.8282044942 0.6812697526 -1.3087619061
H -3.9579691987 -1.7790655896 -1.6445695198
H -2.2143114450 -1.8418648440 -1.9736733138
H -2.8053772230 -1.3975333953 -0.3572922593
H 0.3165338442 1.2031858526 -0.0307777918
H -0.5220337111 3.4168485797 -0.8780682087
H -1.2826475428 3.6960960079 0.6992669411
H 0.7856354758 4.8507476351 0.8393246193
H 1.9763317404 3.6756554724 2.6654839931
H -1.5334672788 1.7833518998 2.3195664649
H -1.3701504891 -0.5885712485 1.7743354462
H -1.6867576017 0.1200360672 4.0197174047
H 0.6044717355 0.2504959202 5.5192930978
H 1.6372860794 2.2159067579 4.5280269852
H -0.9274366867 -1.8009098486 5.2998894237
H -1.4049495109 -2.3235193012 3.6737285440
H 0.3112446627 -2.1976169380 4.1054370815
H 1.5038230825 0.0469790637 1.4494008160
H 1.2739784913 -1.3604034874 2.4568217748
H 0.0035470218 -2.5235212222 0.7508200166
H -0.1474033551 -1.0805906436 -0.2384807733
H 2.5231581598 -2.3938312965 0.3879136262
H 0.6168293708 -2.6193506231 -1.9941889969
H 1.2790652013 -3.9321951592 -1.0144090490
H 3.0023625515 -4.0837829217 -2.5553719081
H 4.6691815928 -2.1752654387 -2.6778769546
H 4.2821825723 -2.6773624856 -1.0224573860
H 2.9245540998 -2.6367963759 -4.3326631248
H 1.8830632676 3.9875879238 -1.1849207489
H 2.2064763239 2.4318712081 -0.3880156059
H 2.9950850700 3.9032700010 0.1967487791
