34
CONF21
C -2.1344437831 -1.7162143737 1.4134217636
C -2.9751696636 -0.4631210689 1.3329951693
O -2.1539725732 0.7349111943 1.1049237860
P -1.4699967334 1.0351658116 -0.3035630087
S -2.4402165309 0.5719746930 -1.9118837280
O -0.9371339402 2.5198990810 -0.1100067794
C -1.7375660560 3.6890733402 -0.5074087469
C -2.8987541171 3.9231059018 0.4296462459
O -0.0382112122 0.1927075555 -0.3025508086
N 0.7071446854 0.3608918029 0.8727072212
C 1.8175760958 -0.3044209616 0.8344112752
C 2.5859165848 -0.0906949431 2.0305450979
N 3.2225519294 0.0521646056 2.9856211820
C 2.3990502825 -1.1817737650 -0.1952098466
C 3.7964602304 -1.2177751502 -0.3197714150
C 4.3929429393 -2.0285923227 -1.2755733418
C 3.6057195889 -2.8317836045 -2.0971967795
C 2.2189661261 -2.8195767559 -1.9596405998
C 1.6099738967 -1.9971382386 -1.0209072271
H -1.3486893111 -1.6121808070 2.1671020578
H -2.7799141175 -2.5531486216 1.6978897528
H -1.6761763883 -1.9546340273 0.4490788222
H -3.7228269622 -0.5200863155 0.5356724520
H -3.4749968593 -0.2507786179 2.2797524111
H -2.0657662997 3.5383515454 -1.5406724770
H -1.0184372938 4.5092556983 -0.4752696586
H -3.3931934914 4.8575085887 0.1456205376
H -2.5544611443 4.0117515757 1.4636112683
H -3.6342744209 3.1157581178 0.3665466455
H 4.4147074760 -0.5988732488 0.3230222746
H 5.4733365465 -2.0376919593 -1.3736250801
H 4.0719455058 -3.4721842104 -2.8390020694
H 1.6042060791 -3.4558688649 -2.5876652694
H 0.5337027517 -2.0059809669 -0.9167095203
