42
CONF9
C -0.2714383466 -4.0470568615 -2.8670222852
C -0.4303391646 -4.1741800383 -1.4896018545
C -0.6540905286 -3.0497672847 -0.7038307557
C -0.7177989682 -1.7842597506 -1.2862599617
C -0.5529719183 -1.6619663355 -2.6660815753
C -0.3334644284 -2.7875127240 -3.4542965901
C -0.9222192632 -0.5413938795 -0.4495717052
C -1.9980553363 -0.6882306487 0.6150169621
C -3.3373615945 -0.5160169389 0.2571268233
C -4.3462496586 -0.6804506647 1.1979224164
C -4.0283713771 -1.0112202674 2.5132749062
C -2.6974250797 -1.1768523586 2.8794039062
C -1.6860063283 -1.0179673358 1.9354442923
C 0.3764301290 -0.0644916156 0.1968758600
O 1.3729014170 -0.7332380266 0.3208007941
C 0.3344450333 1.3998323014 0.6667889153
C 0.8057356721 2.2708144729 -0.5106695930
O 0.2007169955 2.4577098276 -1.5441238945
C 2.1384214191 2.8035162247 -0.1472303798
C 2.9999665490 3.5703978537 -0.9240294488
C 4.2079426657 3.9591773154 -0.3561641132
C 4.5419524378 3.5925167995 0.9554558488
C 3.6756946020 2.8296088068 1.7308435938
C 2.4699774522 2.4397991029 1.1603153558
C 1.3700312777 1.6504377521 1.7655592742
O 1.2915944410 1.2751788965 2.9123888472
H -0.1015689498 -4.9265843284 -3.4796825885
H -0.3813562664 -5.1539982609 -1.0252772177
H -0.7847942567 -3.1542432113 0.3683845783
H -0.5943300205 -0.6774402717 -3.1251139066
H -0.2117617619 -2.6792090221 -4.5274175470
H -1.2278632107 0.2798332318 -1.1142258174
H -3.5852806543 -0.2612806501 -0.7694584373
H -5.3829047197 -0.5468572607 0.9054768875
H -4.8159296170 -1.1350987251 3.2494277571
H -2.4397412008 -1.4265813625 3.9035018737
H -0.6495384708 -1.1447715278 2.2369202821
H -0.6841812744 1.6569074793 0.9728225122
H 2.7285076452 3.8465695517 -1.9373460338
H 4.9069204117 4.5557955577 -0.9334208259
H 5.4933434055 3.9127287422 1.3680101417
H 3.9204621542 2.5398451228 2.7471146918
