40
CONF27
C 4.6034470050 -1.2502963859 0.9205716613
O 3.8940291881 -0.4739203394 -0.0795925479
C 4.6587982964 0.2876658706 -0.8784895758
O 5.8722974963 0.3202577056 -0.8346046645
C 3.8071523296 1.1235508607 -1.7971761431
S 3.4721418409 2.7572083048 -0.9922844167
C 2.4147970015 2.2256789897 0.3448127085
C 1.1177597150 1.7982467687 0.0518654040
C 0.2462064715 1.3252112133 1.0387394835
C 0.7180135638 1.3630281894 2.3589417510
C 1.9843796203 1.7947787423 2.6945864182
C 2.8384034327 2.2136410226 1.6777282573
Cl 4.4591655952 2.6983412818 2.1262966256
F -0.0967825102 0.9398825631 3.3464207187
N -1.0521036914 0.9032191886 0.7866168401
C -1.2802651204 0.0290421604 -0.1243811501
N -2.5518697389 -0.3145385413 -0.5133181676
N -2.6046849807 -1.5273144466 -1.2267557266
C -1.4132654891 -1.9923547790 -1.6864956069
O -1.2421267319 -2.9215892285 -2.4527344232
S -0.0772505151 -0.9753577900 -0.9971584151
C -3.8600308610 -1.7861386721 -1.9525854959
C -5.0355442088 -1.6673647443 -0.9940827496
C -5.0011206185 -0.3074949719 -0.3026132019
C -3.6790859732 -0.1108757139 0.4243322319
H 5.1693255786 -0.5837499798 1.5757515244
H 5.2779664646 -1.9595604050 0.4357244025
H 3.8291295888 -1.7742051509 1.4791119546
H 2.8619560567 0.6351774475 -2.0429995664
H 4.3663964033 1.3580534350 -2.7052799622
H 0.7700804645 1.8477176925 -0.9751647007
H 2.3019739303 1.7818867719 3.7306744039
H -3.9497177113 -1.0588547652 -2.7716557401
H -3.7708295667 -2.7888264934 -2.3730185906
H -5.9612350391 -1.7914416413 -1.5635551898
H -4.9859675408 -2.4714882675 -0.2503473983
H -5.1363626327 0.4922319036 -1.0407166391
H -5.8077843800 -0.2237162388 0.4316043864
H -3.5760619911 -0.8198849345 1.2586055177
H -3.5813319434 0.9041532712 0.8093307918
