47
CONF1
C -4.4337881053 -1.0591751555 1.2605382544
C -3.4011510621 -0.0777423700 0.7508847653
C -1.9936024104 -0.1156968892 1.2926276397
C -2.2878822739 -0.6881656684 -0.1032498310
C -1.7401938154 -0.0750153543 -1.3220793480
O -1.6455168399 -0.6373240720 -2.3930814796
O -1.3248141893 1.2131815241 -1.1307523646
C -0.7230926662 1.8346037650 -2.2873534952
C -0.7545724560 3.2724183730 -2.0116304756
N -0.7488592127 4.4120304064 -1.8266660492
C 0.6951888822 1.3507030574 -2.5089032958
C 1.5283824751 1.1491027744 -1.4113986862
C 2.8201431878 0.6784409524 -1.6084051688
C 3.2655255390 0.4488527721 -2.9098065248
C 2.4541485547 0.6694380669 -4.0080417466
C 1.1528416424 1.1149264265 -3.8030989343
F 4.5201437852 -0.0079041077 -3.0902665948
O 3.7081823181 0.4962935001 -0.5777893862
C 3.3733072527 -0.3633271584 0.4605180683
C 4.1210769400 -0.2165303481 1.6256866022
C 3.8983417790 -1.0861238415 2.6875528483
C 2.9315514715 -2.0855238075 2.5928587689
C 2.1865209170 -2.2101326062 1.4235568644
C 2.4024765769 -1.3547316343 0.3446402155
C -1.5823673763 -1.0309491856 2.3581179738
C -0.6235943689 -0.7841228935 3.2519640930
Cl 0.3341829798 0.6697635286 3.2805176025
Cl -0.2283160752 -1.9118963081 4.5223131343
C -3.9832497114 1.2749029480 0.4070065274
H -4.8514855241 -0.7007291553 2.2077637644
H -4.0260429127 -2.0596665072 1.4174435394
H -5.2516924251 -1.1390181534 0.5372044577
H -1.4824095859 0.8404722531 1.2725125579
H -2.3277845868 -1.7693142928 -0.1872185910
H -1.3299716966 1.6392620249 -3.1792262994
H 1.1787421718 1.3311982073 -0.3995294335
H 2.8367338988 0.4710661377 -5.0031599342
H 0.4948689103 1.2680718507 -4.6521976006
H 4.8703445770 0.5659978887 1.6823961401
H 4.4826529665 -0.9762537700 3.5957349396
H 2.7576024088 -2.7583656160 3.4252059675
H 1.4298818191 -2.9842661358 1.3396938113
H 1.8294319065 -1.4675030155 -0.5691693486
H -2.0905404661 -1.9859886481 2.4469684457
H -3.2208855096 2.0014142612 0.1246291595
H -4.5194163628 1.6623491552 1.2797316444
H -4.7010430309 1.1809769371 -0.4154130951
