49
CONF57
C -1.6854427770 3.3339303241 -0.6814218879
C -1.5546332257 2.0137890888 -1.1020156793
C -1.1083340633 1.0336453756 -0.2236364983
C -0.7971946141 1.3861443850 1.0901628011
C -0.9403740353 2.7016898590 1.5288423659
C -1.3750234285 3.6715601823 0.6325610104
N -0.2931654524 0.4134176851 2.0076384730
C 0.9987730068 0.5527607660 2.5436150085
O 1.5236457778 1.6104822263 2.8059233662
C 1.6271731156 -0.8242944991 2.5706929143
C 0.5197924321 -1.7553751272 2.1223486178
O 0.5273699174 -2.9661659366 2.1254274210
N -0.5489649125 -0.9530728635 1.7173096614
C -1.9014485386 -1.3872805547 1.6749314060
C -2.2010624371 -2.5810475952 1.0158347223
C -3.5180025742 -3.0221857573 0.9775248936
C -4.5349119431 -2.2761738602 1.5659256451
C -4.2260032183 -1.0790039828 2.2037369020
C -2.9128036613 -0.6283838707 2.2655997343
C 2.8333797721 -0.8421222120 1.6041316752
C 2.4065056557 -0.4377967819 0.1996329492
S 3.8742373455 -0.3602969903 -0.9385405358
O 4.3551556624 -1.7876189904 -1.1106401471
C 2.8604745444 0.0544017051 -2.4039681571
C 2.3317950627 1.3329289125 -2.5507928162
C 1.5591619152 1.6152311545 -3.6723337551
C 1.3401556411 0.6315673959 -4.6351343784
C 1.8935808079 -0.6364393178 -4.4796572463
C 2.6626775824 -0.9338251213 -3.3570085929
H -2.0351982660 4.0940994572 -1.3717026078
H -1.7934256431 1.7382763557 -2.1239442801
H -1.0016569827 0.0079987783 -0.5567120425
H -0.7005771691 2.9560690479 2.5532212627
H -1.4795292175 4.6970344376 0.9711823216
H 1.9559194654 -1.1083873702 3.5748987789
H -1.4089636887 -3.1568679176 0.5559420246
H -3.7483244705 -3.9547600266 0.4731213330
H -5.5618785121 -2.6223866286 1.5227041332
H -5.0108146432 -0.4868877920 2.6628218616
H -2.6778754303 0.3031385138 2.7663230940
H 3.5855460656 -0.1472524613 1.9924303655
H 3.2573703435 -1.8507244569 1.5929131052
H 1.7202276633 -1.1650499909 -0.2499323983
H 1.9506948208 0.5594524329 0.1744745836
H 2.5139138121 2.1008161227 -1.8036387048
H 1.1339851958 2.6060529471 -3.7960052897
H 0.7438745571 0.8580891077 -5.5130457837
H 1.7287432482 -1.3979060623 -5.2353595474
H 3.1114544988 -1.9112690036 -3.2067209590
