65
CONF61
C 6.0459764826 1.4072894402 0.3393385332
O 5.7649959399 0.3868852825 -0.6111341857
C 4.9425327895 -0.6300865783 -0.2161456962
C 4.3624580691 -0.7350412026 1.0495108829
C 3.5399730510 -1.8222796946 1.3362309153
C 3.2670232621 -2.8080984419 0.3902182021
C 3.8682217066 -2.6873331930 -0.8669388127
C 4.6934258568 -1.6166786078 -1.1739652968
C 2.3363774155 -3.9489024374 0.7137484633
C 0.8773901619 -3.5637304903 1.0101631332
N 0.1025813971 -3.1670636242 -0.1676802907
C 0.3768672872 -1.7774379317 -0.5615354675
C -0.3711318707 -1.4074399916 -1.8365898836
C -1.8835315752 -1.5978749110 -1.6749474380
C -2.1581837913 -3.0078801413 -1.1528948519
C -1.3298987523 -3.3334521229 0.0878933636
N -2.4691802204 -0.6126155493 -0.7483687896
C -2.5609978070 0.6899140989 -1.1620051392
N -2.4919306809 1.1188113220 -2.4039130509
C -2.6904447764 2.4877829276 -2.3141115770
C -2.7088333644 3.4540178450 -3.3162717705
C -2.9046406846 4.7827720974 -2.9464532528
C -3.0787966097 5.1517409766 -1.6078086238
C -3.0670298473 4.1992708106 -0.5876081935
C -2.8771149380 2.8795459250 -0.9669157897
N -2.8113514445 1.6971398555 -0.2391963172
C -2.8268368880 1.5411684386 1.1983725792
C -1.4679330601 1.1883055641 1.7734179283
C -0.3007323532 1.7110477452 1.2120766288
C 0.9432180830 1.4202679717 1.7597514384
C 0.9981631977 0.6027301698 2.8765994600
C -0.1338198598 0.0467577184 3.4462926043
C -1.3704320272 0.3459616359 2.8810348706
F 2.2026732233 0.3351537386 3.4316777444
H 6.7071733451 2.1127326063 -0.1657935080
H 6.5534135828 1.0018132036 1.2246609808
H 5.1303120597 1.9274846002 0.6517539056
H 4.5424037818 0.0063398483 1.8182396077
H 3.0985197321 -1.8900309963 2.3265387899
H 3.6714344781 -3.4406732000 -1.6250388228
H 5.1550936948 -1.5235542709 -2.1511094597
H 2.3387680924 -4.6748593643 -0.1059517093
H 2.7140797271 -4.4693159016 1.6040254212
H 0.8489105568 -2.7748691131 1.7910110054
H 0.3904355467 -4.4476968943 1.4401742617
H 1.4494444358 -1.6531830703 -0.7194633045
H 0.1044468541 -1.0811361546 0.2624503881
H -0.1583961852 -0.3696666743 -2.1129697497
H -0.0192036265 -2.0473715578 -2.6546760241
H -2.3820013623 -1.4473090315 -2.6365779561
H -3.2244358096 -3.1288900617 -0.9330269850
H -1.8914803130 -3.7207680379 -1.9410522073
H -1.6602759227 -2.7073844510 0.9498563858
H -1.5156295736 -4.3736074486 0.3808058680
H -2.1436857477 -0.7117193451 0.2049140505
H -2.9209259917 5.5512318900 -3.7124344994
H -3.2258799320 6.1963546619 -1.3549600921
H -3.2010838045 4.4934278041 0.4487975619
H -3.1827105869 2.4848056387 1.6273994269
H -3.5622796875 0.7751691811 1.4794755640
H 1.8593578427 1.8096908368 1.3307584805
H -0.0425999848 -0.6027697538 4.3093722983
H -2.2702052809 -0.0825760092 3.3146243754
H -0.3645413362 2.3459335807 0.3333096204
H -2.5701428544 3.1682557568 -4.3533933917
