44
CONF17
C -1.6596107120 -4.1060234733 0.0778206122
C -0.4811987934 -4.2611226899 -0.8924411255
C -0.6059190737 -3.0398011498 -1.8156808451
C -1.3244456743 -1.9426617759 -0.9686168799
C -1.6535950496 -2.6067896504 0.3902048380
N -0.6094145991 -0.6588407861 -0.8595424726
C -1.1453604488 0.5189809809 -1.5265785094
C -1.7023998730 1.5888528363 -0.6007618187
C -2.1433352535 1.2812637658 0.6857324834
C -2.6673278518 2.2663827466 1.5156706989
C -2.7475120105 3.5722899584 1.0471242328
C -2.3078393515 3.9087113391 -0.2281443115
C -1.7841338476 2.9110019522 -1.0422281689
Cl -3.4008331821 4.8215160314 2.0876509572
C 0.6465633753 -0.6526330960 -0.2778062720
O 1.2183291303 -1.6825626090 0.0596298177
N 1.1912906233 0.6179551461 -0.1136622807
C 2.4437672566 0.9269887139 0.4416203746
C 2.6187910913 2.2263788049 0.9365377323
C 3.8417655759 2.6231979140 1.4583335189
C 4.9096972521 1.7315260347 1.5016829181
C 4.7330506320 0.4420530813 1.0099151522
C 3.5162272609 0.0290626727 0.4782604800
H -1.5629476669 -4.7236731395 0.9755004538
H -2.5976565820 -4.3871904447 -0.4196084714
H 0.4580313746 -4.2006017847 -0.3352167236
H -0.4997610445 -5.2088924503 -1.4386062597
H -1.2230328054 -3.2820364870 -2.6883865267
H 0.3620575461 -2.6893955727 -2.1783451766
H -2.2701505635 -1.6896179361 -1.4573410224
H -0.8586733572 -2.3848984272 1.1068981526
H -2.6031902261 -2.2466583802 0.7996996570
H -0.3799197289 0.9711017209 -2.1737136974
H -1.9456629988 0.1844081355 -2.1964032848
H -2.0592913593 0.2615200669 1.0484655700
H -3.0053630674 2.0257839807 2.5168860579
H -2.3678215522 4.9344859417 -0.5726990465
H -1.4299920758 3.1703698909 -2.0368061794
H 0.5433333415 1.3924328413 -0.1211778353
H 1.7868253050 2.9266429362 0.9129617278
H 3.9558862356 3.6337870785 1.8374789147
H 5.8653521461 2.0380261060 1.9129205649
H 5.5571664304 -0.2641264958 1.0359683846
H 3.3882548492 -0.9771935293 0.1068037356
