38
CONF24
O -0.3240452332 2.2641972398 1.1505067166
P -0.2439402242 1.1029171187 0.2432922857
O -0.1663340693 -0.2569835723 1.1024702455
C 0.2788371897 -1.4900506814 0.5966727166
C -0.2189191956 -2.0235024657 -0.5844591277
C 0.2735737260 -3.2541152395 -1.0157407620
C 1.2339921577 -3.9341155585 -0.2719282652
C 1.7035633171 -3.3853823561 0.9202843453
C 1.2272464878 -2.1556650347 1.3623257965
O 0.9518235073 1.0275054662 -0.8248921030
C 2.2537471234 0.6445137592 -0.4617633421
C 2.8585609713 1.1206064461 0.6935977852
C 4.1512616405 0.6912296815 0.9894608378
C 4.8201988871 -0.1816277941 0.1357333369
C 4.1966708768 -0.6275000501 -1.0287876511
C 2.9034582006 -0.2172609218 -1.3347447970
O -1.4435440492 0.9610900261 -0.8159219755
C -2.7579366184 1.2609010740 -0.4033282644
C -3.5281120868 0.2601277453 0.1712412222
C -4.8432973301 0.5547354476 0.5242698409
C -5.3639026974 1.8271746466 0.3005649381
C -4.5685382901 2.8137906240 -0.2794397138
C -3.2516713826 2.5356515247 -0.6363687467
H -0.9678848586 -1.4935011485 -1.1612098439
H -0.1022784791 -3.6796535767 -1.9407008716
H 1.6127381429 -4.8904007381 -0.6171046346
H 2.4497649365 -3.9104960703 1.5078734000
H 1.5900958808 -1.7012851445 2.2779478061
H 2.3349023807 1.8077538090 1.3499053573
H 4.6343918924 1.0495997503 1.8926914374
H 5.8263242728 -0.5102917672 0.3737989676
H 4.7135996999 -1.3050666064 -1.7006806633
H 2.3910918895 -0.5656789087 -2.2248432153
H -3.1067963826 -0.7263552935 0.3342181800
H -5.4598877618 -0.2167572328 0.9739587570
H -6.3893088524 2.0497552261 0.5765826757
H -4.9709501113 3.8061211702 -0.4553874597
H -2.6131081099 3.2879718954 -1.0864784675
