45
CONF28
C -3.1811628111 2.9812645281 0.7432748746
C -2.8626315446 1.5192882967 0.7701959994
N -3.4584465951 0.6374946991 0.0452678830
O -4.4090571649 1.2163337071 -0.7972146260
C -5.0620536149 0.1792400549 -1.5471540935
C -1.8195131893 0.9797615376 1.6666914300
C -0.9362091876 -0.0257134694 1.2298253970
C -0.0592446094 -0.5968208435 2.1587168540
C -0.0187897439 -0.1713295497 3.4775943938
C -0.8751589393 0.8433654896 3.8918618261
C -1.7671603932 1.4156297052 2.9952240668
O 0.7623622470 -1.6684360715 1.8275062891
C 1.7191988363 -1.5192942500 0.8662956403
N 2.2720270484 -2.6607533852 0.4994475918
C 3.2234065760 -2.5514995880 -0.4440769030
C 3.5926941589 -1.3346255689 -1.0069883990
C 2.9206205015 -0.2166263165 -0.5072563279
N 1.9862954424 -0.2885173868 0.4436407432
O 3.2504331409 0.9738839381 -1.0180288202
C 2.5574326912 2.1385805482 -0.5041021501
O 3.7595100555 -3.7339758731 -0.7782982488
C 4.7900240850 -3.7428097665 -1.7878541406
C -0.8856576039 -0.4691993599 -0.1952511897
O -0.9460494589 -1.6294094440 -0.5536391878
O -0.6948987766 0.5667411478 -1.0241801741
C -0.6182442165 0.2327251900 -2.4317437821
H -4.2346211640 3.1538756765 0.9866723173
H -3.0206480150 3.3658894025 -0.2701161706
H -2.5498752257 3.5386356738 1.4346690874
H -5.5997641753 -0.5020622305 -0.8792804836
H -5.7679844331 0.6954882466 -2.2003656515
H -4.3351460802 -0.3790117136 -2.1469852264
H 0.6871453027 -0.6326321729 4.1594021883
H -0.8504972738 1.1806714646 4.9225757723
H -2.4549590921 2.1831440635 3.3334813327
H 4.3444057235 -1.2243458039 -1.7746430068
H 2.9591208773 2.9754684327 -1.0742139571
H 2.7665219058 2.2658407275 0.5609469261
H 1.4812370143 2.0420149796 -0.6644849651
H 4.4014912310 -3.3583519645 -2.7360541828
H 5.0755778090 -4.7879985853 -1.8985666799
H 5.6514709045 -3.1515420026 -1.4620244306
H -1.5496848875 -0.2385835686 -2.7562212837
H 0.2228308123 -0.4424966216 -2.6102388297
H -0.4663491731 1.1815584288 -2.9443075969
