38
CONF15
C -6.2624881048 2.3148509444 0.6188136241
C -4.9813409454 1.7118306410 1.1267979719
C -4.6599217676 1.7679614298 2.4864990135
C -3.4762011361 1.2064803664 2.9451959030
C -2.5836226866 0.5792913747 2.0809940274
C -2.8991096302 0.5195642174 0.7224987642
C -4.0940358254 1.0858591771 0.2586983961
N -2.0727635163 -0.0861848751 -0.2393818215
C -0.8802890184 -0.7228131750 -0.0429725657
O -0.2821701597 -0.8778728758 0.9924834840
O -0.4565984308 -1.1970081069 -1.2759217462
C 0.7985195108 -1.8023681035 -1.3254209176
C 0.8511760632 -3.1275497335 -1.7279776928
C 2.1014390916 -3.7257643437 -1.8478652067
C 3.2569311494 -3.0121209150 -1.5697942605
C 3.1777938173 -1.6726486163 -1.1642783634
C 1.9316503237 -1.0548697224 -1.0422910373
N 4.3844732528 -1.0145391965 -0.8888901982
C 4.5775903563 0.3156077824 -0.6151132836
O 3.7328372827 1.1820084140 -0.5604868852
O 5.9103200700 0.5243732889 -0.4113904582
C 6.2483619910 1.8913263433 -0.1100907001
H -6.3132713736 3.3822118474 0.8580645835
H -7.1304063955 1.8359902965 1.0844196419
H -6.3559494642 2.2052796283 -0.4642466477
H -5.3401845741 2.2528463611 3.1805725652
H -3.2322680196 1.2543177275 4.0019108284
H -1.6638229552 0.1463708282 2.4462309276
H -4.3328453880 1.0356323856 -0.8015227265
H -2.3981375782 -0.0635681056 -1.1933716604
H -0.0648176975 -3.6670200265 -1.9369761355
H 2.1757120511 -4.7616168623 -2.1613658375
H 4.2271876615 -3.4903957853 -1.6675110071
H 1.8498099276 -0.0249226706 -0.7277604900
H 5.2219849927 -1.5743404983 -0.9223003880
H 5.7375527090 2.2208007568 0.7983849587
H 7.3287715879 1.8954131666 0.0336827277
H 5.9681336171 2.5475864287 -0.9383163715
