52
CONF71
C 2.6997046295 2.4613098814 0.1903624491
N 2.6373159173 1.2917282366 1.0631355341
C 3.8252836160 0.4609512353 0.8168431813
C 3.8737901165 -0.7482798822 1.7396459131
C 2.6197950874 -1.5963901103 1.5506483780
C 1.3853138050 -0.7234793543 1.7423219237
C 1.4024424545 0.5121172672 0.8366059876
C 0.1362629780 1.3550748046 1.0926259754
C -0.6107684162 1.7849257173 -0.1744022073
N -0.9272075491 0.6442582752 -1.0387621392
C -0.7993903441 0.7709244292 -2.4337333880
C -0.9183526786 2.0056748530 -3.0806581518
C -0.7461778075 2.1015324424 -4.4582291294
C -0.4965030346 0.9662168111 -5.2198976193
C -0.4207494146 -0.2751668417 -4.5946520740
C -0.5499336361 -0.3690164089 -3.2136723839
S -0.3158629237 -1.9325482586 -2.3966150622
C -1.4895003773 -1.7178261353 -1.0822956689
C -1.6484241722 -0.4390116039 -0.5208645901
C -2.5205947269 -0.2898432628 0.5625928653
C -3.1553858577 -1.4036398382 1.0864690702
C -3.0201609679 -2.6671675089 0.5257127644
C -2.1896178120 -2.8119937366 -0.5812159178
S -4.2449732124 -1.1330383554 2.5284524068
O -4.2986166863 0.3655760370 2.7588819296
C -3.0448386575 -1.7898135777 3.7721529128
H 1.9013612542 3.1711570649 0.4238450970
H 3.6505216413 2.9804417955 0.3493004562
H 2.6300968616 2.1991374195 -0.8855109791
H 4.7118105816 1.0883527873 0.9690535763
H 3.8495712712 0.1130610113 -0.2386949882
H 3.9377707707 -0.4038101513 2.7794284829
H 4.7779830516 -1.3302389595 1.5269838410
H 2.6069966831 -2.4419982869 2.2475250322
H 2.6118590972 -2.0141920510 0.5342040715
H 0.4714913286 -1.2913590621 1.5257097405
H 1.3261736061 -0.3849320178 2.7863679827
H 1.3809463668 0.1539187895 -0.2155144626
H -0.5407312230 0.7854099974 1.7356245589
H 0.3930718483 2.2538434254 1.6636337468
H -1.5085623465 2.3649955145 0.0917646789
H 0.0352680953 2.4403350908 -0.7628416494
H -1.1563554401 2.8947857712 -2.5083442948
H -0.8284764014 3.0720642243 -4.9361844334
H -0.3727110390 1.0390818515 -6.2947048645
H -0.2400670760 -1.1751100712 -5.1736827488
H -2.7164636811 0.6772691326 1.0138139267
H -3.5538569204 -3.5230000525 0.9278859089
H -2.0668082390 -3.7822516307 -1.0516762539
H -2.8392612788 -2.8429583003 3.5625934484
H -2.1327847446 -1.1909110326 3.7045813139
H -3.5116953711 -1.6761664809 4.7533864502
