55
CONF386
C 2.2339099473 1.2475790283 -1.0561973242
C 3.4810347278 0.3897250417 -1.2032646181
N 4.3957594135 0.6075031053 -0.0763571598
C 3.6985181249 0.2912929449 1.1744019424
C 2.4541842764 1.1523907797 1.3197390549
N 1.5377610152 0.9330602690 0.1955143548
C 0.3272454254 1.7421249792 0.3674042802
C -0.7714805464 1.4229499326 -0.6611652782
C -1.0574049461 -0.0382582832 -0.7773401107
C -2.1670153445 -0.7108612840 -0.4088006109
C -2.2829269617 -2.1564077832 -0.6940577010
C -1.2044041065 -3.0306537346 -0.5053795993
C -1.3017446675 -4.3745698703 -0.8444050887
C -2.4940549534 -4.8780850463 -1.3633542736
C -3.5908582618 -4.0394887154 -1.5246658716
C -3.4838882006 -2.6890305962 -1.1867354938
S -4.8994525708 -1.6443269265 -1.4603904438
C -4.6417601605 -0.4197071647 -0.2043938286
C -3.3452707257 -0.0879491217 0.2246082058
C -3.2162307079 0.8333554016 1.2701157185
C -4.3321365366 1.4664881508 1.8007154980
C -5.6109022323 1.1776696682 1.3180693104
C -5.7644965952 0.2202699802 0.3297410397
C -4.1941711228 2.4763123247 2.8960057705
F -4.9341775684 2.1461126054 3.9895135591
F -4.6311624412 3.7065461579 2.5064367785
F -2.9190160693 2.6298472839 3.3166280055
C 5.6323667111 -0.1719142502 -0.2140811623
C 6.5673380459 0.4807255682 -1.2236311347
O 6.7997028307 1.8528421772 -0.8812969567
H 1.5740081423 1.0436191515 -1.9058482040
H 2.5157000548 2.3192093707 -1.0969165115
H 3.1856682225 -0.6761758016 -1.2685176971
H 3.9819439918 0.6553685810 -2.1398657048
H 3.4086481027 -0.7773224918 1.2106558387
H 4.3730181454 0.4864735829 2.0157722954
H 1.9402362602 0.8892376286 2.2516902651
H 2.7562494213 2.2169686448 1.3890495504
H -0.0579058948 1.5376875654 1.3741333760
H 0.5542941803 2.8256122414 0.3183729439
H -0.4591594333 1.7897833766 -1.6470863156
H -1.6658070552 1.9899169462 -0.3865143744
H -0.2796399887 -0.6217373709 -1.2657036501
H -0.2825599539 -2.6394347697 -0.0856569320
H -0.4510598861 -5.0315799019 -0.6952935703
H -2.5793835397 -5.9279476974 -1.6243451456
H -4.5287291987 -4.4300383905 -1.9075583671
H -2.2316603177 1.0425845491 1.6684703230
H -6.4823546084 1.6744357317 1.7319861572
H -6.7567886833 -0.0424677931 -0.0222177106
H 5.4365622131 -1.2204983329 -0.5075238243
H 6.1294006556 -0.1858554147 0.7635223136
H 7.5342031712 -0.0327315960 -1.2112815022
H 6.1618092828 0.4051076648 -2.2436527202
H 5.9380404727 2.1742419036 -0.5677528816
