47
CONF109
C -1.8747246924 -2.3835844979 -0.8071693827
O -2.0582779685 -0.9520039991 -0.6741262009
C -1.2270044264 -0.1989264079 -1.3895705961
C -1.2087909367 1.1513258346 -1.2793468853
C -2.0634224870 1.8798322203 -0.3169188850
C -3.0165789184 2.8121587439 -0.7422038810
C -3.8298630372 3.4819969011 0.1653866877
C -3.7053241851 3.2321622199 1.5303374846
C -2.7612961965 2.3158044126 1.9829270092
C -1.9567306168 1.6620234483 1.0620097051
O -1.0868882122 0.6866116364 1.5599239094
C 0.2386045558 0.8021128016 1.3190697153
C 0.9931159269 -0.3637937463 1.4209512807
C 2.3457702077 -0.2014687869 1.1669472029
N 2.9096400650 0.9713269994 0.8747173106
C 2.0761689364 2.0097208282 0.8327468798
N 0.7566538633 1.9952087503 1.0374647195
O 3.2379511138 -1.2349658433 1.1894175828
C 2.7449140844 -2.5248360526 1.3227604810
C 2.8402803384 -3.1704006677 2.5416315933
C 2.3997405326 -4.4881094121 2.6450428010
C 1.8679696473 -5.1492619153 1.5392039247
C 1.7763527445 -4.5023116209 0.3152771851
C 2.2205821701 -3.1775295513 0.1967837894
C 2.1446427166 -2.4921153589 -1.0440978277
N 2.0856839062 -1.9328466009 -2.0570713642
C -0.2524198964 1.8537534232 -2.1473342149
O 0.5095917387 1.3191301761 -2.9411843045
O -0.2917622600 3.1908222182 -1.9634506729
C 0.6481711066 3.9550794844 -2.7528390895
H -0.9352734779 -2.6794517512 -0.3307600653
H -1.8747385352 -2.6673867579 -1.8636014303
H -2.7172617613 -2.8434017160 -0.2922668665
H -0.5566301308 -0.7081854552 -2.0806503830
H -3.1194885889 2.9997025646 -1.8061880160
H -4.5652368848 4.1941901283 -0.1942138121
H -4.3382682791 3.7491574916 2.2441354345
H -2.6374598170 2.1045078191 3.0397894467
H 0.5297741395 -1.3135104718 1.6553735267
H 2.5200137470 2.9780523789 0.6054394869
H 3.2534107858 -2.6406300473 3.3929653005
H 2.4718422446 -4.9992126481 3.5991622064
H 1.5263389152 -6.1742276024 1.6298260609
H 1.3696364679 -5.0053650324 -0.5546934771
H 0.4770341039 4.9949501956 -2.4764339592
H 0.4610183982 3.8056279384 -3.8190416430
H 1.6725385771 3.6582672331 -2.5133293595
