40
CONF2
C -1.9312816061 0.5063605871 2.0393934887
Si -2.1649796912 -0.2302335374 0.3423944282
C -3.9566171501 -0.4925288054 -0.0767691936
O -1.5137427561 0.7523322803 -0.8131805112
Si -0.2901345358 1.8229546198 -1.0934975007
C -0.4077860378 3.2603686316 0.0880157487
C -0.4149631150 2.3535974473 -2.8706236849
O 1.1615582540 1.0600592851 -0.9092068361
Si 2.0527839235 0.1945216389 0.1766803566
C 3.5791828730 -0.3940401380 -0.7098808125
C 2.4505029473 1.2342029109 1.6686926700
O 1.1685830482 -1.0997158184 0.7012596116
Si 0.1370357965 -2.2327416831 0.0792667530
C 0.4667770760 -2.4862568326 -1.7379826821
C 0.3310484031 -3.7918551737 1.0717349482
O -1.4141462181 -1.6995010723 0.2745505592
H -2.3752303268 -0.1472010619 2.7987016299
H -0.8684859887 0.6256013888 2.2768957138
H -2.4107766141 1.4885294384 2.1124135037
H -4.0630666627 -0.9048366902 -1.0860777643
H -4.5066735485 0.4536935729 -0.0339330447
H -4.4229624319 -1.1890847795 0.6281511382
H -1.3626192132 3.7834212446 -0.0351570346
H -0.3325061716 2.9315049103 1.1294298886
H 0.3994858421 3.9767250622 -0.1013585074
H -0.3380477786 1.4885667386 -3.5385045441
H 0.3874775137 3.0541637373 -3.1251936081
H -1.3728315696 2.8490755143 -3.0617452495
H 4.1905068095 0.4555020275 -1.0336354516
H 3.3151899580 -0.9803958938 -1.5965706540
H 4.1907275832 -1.0226266342 -0.0536805784
H 2.9848891132 2.1441618780 1.3747016309
H 1.5377054309 1.5301405058 2.1967099525
H 3.0835426173 0.6784799792 2.3691303547
H -0.2450393224 -3.2051064202 -2.1586705640
H 0.3634119718 -1.5439392731 -2.2878170051
H 1.4782616959 -2.8718390559 -1.9059290072
H 0.1453501795 -3.5994388837 2.1341399986
H 1.3440965230 -4.1953800534 0.9690443490
H -0.3762267418 -4.5572417084 0.7348127044
