47
CONF40
C -0.6818337517 1.1768518493 3.1039508495
C -0.9678522026 1.7315187684 1.7267547611
C -2.3269456241 2.3068252285 1.4103454238
C -1.9501547614 0.9175870833 0.8825078992
C -1.7742783694 0.7555158682 -0.5669453478
O -1.5660007812 1.6212389890 -1.3895537806
O -1.8810779489 -0.5696711656 -0.9012514483
C -1.7119950853 -0.8501439290 -2.3101892750
C -2.3075823751 -2.1722209470 -2.5122690727
N -2.7570111182 -3.2182318561 -2.7054701431
C -0.2578397749 -0.8488973837 -2.7394181773
C 0.0944780674 -0.2865047150 -3.9634613408
C 1.4248729946 -0.3305061537 -4.3740637545
C 2.3950735879 -0.9137222495 -3.5682120081
C 2.0242764900 -1.4630941064 -2.3415186362
C 0.6976869115 -1.4455893156 -1.9199804433
O 3.0184343763 -2.0785250113 -1.6126962144
C 2.9022456084 -2.1006012134 -0.2269998165
C 2.7582692440 -0.9154513928 0.4890820256
C 2.7174836529 -0.9696514825 1.8786951382
C 2.8233469576 -2.1924285429 2.5413018660
C 2.9752782820 -3.3663714770 1.8070529196
C 3.0133962434 -3.3275085471 0.4143669223
C -3.3945355988 2.4081821752 2.4070051779
C -4.2587320488 3.4186557233 2.5072150215
Cl -5.5019916285 3.4618069571 3.7314289066
Cl -4.2656904577 4.8091406009 1.4567629755
C 0.2271737167 2.3884084919 1.0767783343
H -1.5353584307 0.6482979959 3.5326669471
H -0.3996150482 1.9904453271 3.7811121137
H 0.1564688909 0.4747574964 3.0483145378
H -2.3135442355 3.0749138887 0.6433824725
H -2.3883786292 0.0634575496 1.3873044753
H -2.2766366686 -0.1233305709 -2.9061369289
H -0.6609712750 0.1820197814 -4.5859166272
H 1.7119068404 0.1070782168 -5.3246099464
H 3.4359046589 -0.9459378397 -3.8722310134
H 0.4141859729 -1.8894157557 -0.9714495817
H 2.6862703276 0.0305662141 -0.0380994216
H 2.6134140568 -0.0492201506 2.4448224410
H 2.7922850820 -2.2278766366 3.6253062497
H 3.0605877682 -4.3209834786 2.3166050356
H 3.1270404865 -4.2319275883 -0.1740972392
H -3.5077649290 1.6043523209 3.1279117635
H -0.0084421778 2.8017912865 0.0950649417
H 1.0412405526 1.6639481959 0.9661922806
H 0.5829127385 3.2004517966 1.7196845433
