43
CONF21
C 1.3896997763 5.1930536158 -0.3864687480
C 0.3639622645 4.1227019079 -0.2773663249
N -0.9258256109 4.4098710497 -0.4125885203
N -1.5919006411 3.2264961605 -0.2695262089
C -0.7490954870 2.2022959360 -0.0569021149
C 0.5543148039 2.7254839583 -0.0524119306
C 1.8045269807 2.0355821829 0.1464707257
O 2.8750082448 2.6318364126 0.2852753706
C 1.8207025104 0.5321027265 0.2485803403
C 1.4918623409 -0.3325341973 -0.7952621619
C 1.6075968225 -1.7124027483 -0.6726455896
C 2.0578884168 -2.2248130915 0.5371487283
C 2.3987577978 -1.4031046143 1.6042704018
C 2.2875069274 -0.0295277428 1.4404912785
Cl 2.2130841290 -3.9636094852 0.7073490398
Cl 0.9792269809 0.3027479873 -2.3495490791
O -1.1824906775 0.9358584014 0.0539249851
C -1.4187181464 0.4828333411 1.4158632151
C -1.3588677686 -1.0352945088 1.4926120949
O -0.8884619760 -1.5324125287 2.5069863942
C -1.8960215559 -1.8663406450 0.3921857935
C -2.8260766570 -1.3758198583 -0.5338588478
C -3.3319017310 -2.2144985268 -1.5208464681
C -2.8992615760 -3.5361653030 -1.6049191715
C -1.9739194457 -4.0309931129 -0.6843610446
C -1.4846845123 -3.2047023685 0.3157982382
C -3.0416883735 3.1888974545 -0.3541910053
H 0.9092409495 6.1409018121 -0.6390709628
H 1.9352946689 5.3052115725 0.5552787679
H 2.1285748661 4.9444602073 -1.1539507486
H 1.3600285041 -2.3656423335 -1.5004968292
H 2.7475813956 -1.8242890120 2.5395617166
H 2.5600778568 0.6316076210 2.2570163838
H -2.4096103890 0.8240603809 1.7503932264
H -3.1710271989 -0.3506108404 -0.4752362536
H -4.0621112075 -1.8347854832 -2.2279926535
H -3.2858664277 -4.1836308474 -2.3857548151
H -1.6386560577 -5.0611636344 -0.7491902754
H -0.7705003615 -3.5776809616 1.0414371362
H -3.3646216509 2.1482272319 -0.3172538176
H -3.4779102298 3.7409284458 0.4828179344
H -3.3612486183 3.6384461325 -1.2974369982
H -0.6532776419 0.8863660527 2.0846821936
