33
CONF5
C -4.6070205200 0.5525676224 -0.3720838219
C -3.1397035908 0.4726561676 0.0501988617
C -3.0113882943 -0.0833685941 1.4683398444
C -2.3453729428 -0.3779316516 -0.9640840338
C -0.8675214016 -0.4135298692 -0.6847347142
C -0.0660358761 0.6993188287 -0.9651787041
C 1.2939152847 0.6986327347 -0.6777251029
C 1.8981047307 -0.4229718925 -0.0995552204
C 1.1039167513 -1.5344747644 0.1841357464
C -0.2581369236 -1.5298294802 -0.1084104764
C 3.3858208039 -0.4416556502 0.2233195443
C 4.2654990646 -0.1726270096 -1.0013899483
C 3.6217339541 0.5228456536 1.3711319243
O 3.5102733292 0.2274499053 2.5445241067
O 3.9319186345 1.7685633718 0.9591025627
H -4.7086897591 0.9702241877 -1.3794339724
H -5.1794991411 1.1807164801 0.3184134782
H -5.0591567860 -0.4467806024 -0.3717421582
H -2.7165215761 1.4872793428 0.0352757020
H -3.4032105480 -1.1072381548 1.5129334480
H -3.5792182797 0.5277745170 2.1776302542
H -1.9680095589 -0.1075459785 1.7982821972
H -2.7485825825 -1.3986245505 -0.9555149652
H -2.5168768380 0.0318155015 -1.9674411694
H -0.5160989747 1.5792933985 -1.4182299422
H 1.8876856817 1.5784264077 -0.9076064763
H 1.5558876847 -2.4146375662 0.6335485401
H -0.8579606698 -2.4076483708 0.1177182035
H 3.6214169938 -1.4291230138 0.6306616633
H 4.0941109002 -0.9562482858 -1.7445025716
H 5.3240636980 -0.1799378261 -0.7253971336
H 4.0353558098 0.7923963772 -1.4573834730
H 4.0193003491 2.3342127431 1.7459191834
