25
CONF1
C -0.3488947913 -0.6426840966 1.1767767911
C 1.0566690710 -0.2020239176 0.8328101608
C 1.6467339290 -0.6042223391 -0.3689671508
C 2.9431664155 -0.2190084362 -0.6870416629
C 3.6719942549 0.5814683918 0.1903585796
C 3.0929946902 0.9916599967 1.3858896124
C 1.7935271506 0.6016594786 1.7025773636
C -1.3593382402 -0.3548421236 0.0888009906
C -2.1956771861 -1.3569119958 -0.4028963607
C -3.1331516603 -1.0807664801 -1.3958526849
C -3.2445803879 0.2057502951 -1.9107895532
C -2.4114981095 1.2134274812 -1.4286091685
C -1.4760702220 0.9338484707 -0.4402260337
H -0.6604223614 -0.1451484893 2.1034311895
H -0.3506538892 -1.7190102579 1.3887183520
H 1.0753597605 -1.2156297581 -1.0622160002
H 3.3868644892 -0.5406506282 -1.6241348735
H 4.6832451431 0.8854894434 -0.0597005195
H 3.6505324066 1.6191362880 2.0742851930
H 1.3454110334 0.9258606510 2.6382095376
H -2.1123358292 -2.3648251766 -0.0048917715
H -3.7741408150 -1.8739876432 -1.7678753731
H -3.9728390873 0.4234095883 -2.6853433559
H -2.4898546808 2.2199259562 -1.8276989392
H -0.8170409833 1.7180754019 -0.0774772278
