43
CONF496
C 3.6739028261 -0.4836982344 -3.6808362556
C 2.8124507483 -1.3910304119 -3.1104430378
C 3.1728127223 -1.9524061850 -1.8712014137
N 4.2973588039 -1.6568929612 -1.2265300946
C 5.1270933292 -0.7701563788 -1.7937604818
C 4.8640179667 -0.1622894482 -3.0109235681
C 5.8000392661 0.8317728217 -3.6087981024
F 6.1081710707 0.5278086706 -4.8990194462
F 5.2643289882 2.0852102570 -3.6398580877
F 6.9676273530 0.9235093755 -2.9339049784
O 2.3077853078 -2.8327039717 -1.3432650618
C 2.5826416524 -3.3454101149 -0.0124339301
C 1.3336232683 -4.0702154530 0.4453970114
C 0.1349991430 -3.1573184679 0.5943570135
O 0.4547619660 -2.1810492100 1.6274280257
C -0.4662027183 -1.1863763487 1.7517568606
C -1.5386496209 -1.2832454910 2.6505919968
C -2.4565593134 -0.2639656860 2.8258656892
C -2.3192318242 0.9107211214 2.0791947343
C -1.2646957781 1.0569384673 1.1768512164
C -0.3636038119 0.0065715494 1.0327252142
Cl 0.9688514126 0.1925444994 -0.0888625290
O -3.2655327373 1.8601834754 2.3129881238
C -3.1852866343 3.0853690915 1.5441388178
C -4.3580514472 3.9229162895 1.9277464828
C -4.3491752857 4.7967545439 2.9315151037
Cl -5.7440445236 5.7480068927 3.3486592972
Cl -2.9689244101 5.0968255049 3.9441527475
Cl -1.7039534014 -2.7476237980 3.5952484215
H 3.4349968937 -0.0232782319 -4.6343752344
H 1.8790037561 -1.6736681611 -3.5827463734
H 6.0387623036 -0.5463356157 -1.2459537324
H 2.8257020730 -2.5105287806 0.6500260415
H 1.5507334703 -4.5493188854 1.4069296164
H -0.7532269034 -3.7230339838 0.9001542845
H -0.0812378738 -2.6278989776 -0.3411184198
H -3.2746878724 -0.3618723914 3.5294284547
H -1.1246331012 1.9564478879 0.5930197972
H -3.2349920539 2.8481408768 0.4749944336
H -2.2382597092 3.5927566037 1.7600482806
H -5.2834907608 3.7987633919 1.3745605011
H 1.0773142022 -4.8643438898 -0.2649036080
H 3.4422697693 -4.0219690423 -0.0603698940
