35
CONF175
C -3.2494343800 1.9203126773 0.3786757966
C -2.9513284762 0.6138576907 -0.3176099386
O -3.8367898074 -0.0294415052 -0.8896543918
N -1.6523722650 0.2163579122 -0.2745081349
C -1.2012776308 -1.0531194487 -0.8149390496
C -0.5282861389 -1.8998620746 0.2631798424
O -1.3792013896 -2.0410031247 1.3505547365
O 0.6631686967 -1.2265163951 0.7263023193
C 1.6669449913 -1.0695719010 -0.2888859027
C 2.8661378319 -0.4244507551 0.3735768223
O 2.6232047191 0.9562594359 0.7564713489
P 1.5678635117 1.4063490507 1.8725532847
O 1.4883134415 0.2309363464 2.9585651187
O 2.4328954439 2.5136235363 2.6299962700
O 0.2624154081 1.8922015349 1.3438460887
C 1.1079890488 -0.2497998133 -1.4549308196
O 2.1054154231 -0.2390103374 -2.4731201302
C -0.1957009929 -0.8631667628 -1.9628239659
O -0.7345949617 -0.0845496487 -3.0281740978
H -3.6965826621 2.6073419581 -0.3452910583
H -3.9928588331 1.7338651097 1.1593124768
H -2.3667729116 2.3838692315 0.8228599637
H -0.9981322933 0.7648524265 0.2818265510
H -2.0776331689 -1.5871929569 -1.1941528344
H -0.2264644726 -2.8727385644 -0.1588999376
H -1.0417672411 -2.7501090833 1.9149005056
H 1.9850594432 -2.0576926339 -0.6612020523
H 3.6977216548 -0.3801028465 -0.3306396346
H 3.1635504337 -1.0005920330 1.2558603339
H 0.9878914763 -0.5290088615 2.6026745846
H 1.8924427116 3.2401442700 2.9772923618
H 0.9066413514 0.7760372054 -1.1070563536
H 1.7118099911 0.1895908394 -3.2459254072
H 0.0273972705 -1.8473155456 -2.3941770189
H -1.0276652396 0.7596448869 -2.6529691981
