44
CONF34
C 5.1063286408 0.2382832386 -1.9133571368
C 3.9923460200 0.1925947674 -0.9237290509
N 3.2293265230 -0.9029012980 -0.8927738701
C 2.2241377061 -0.8561491713 -0.0012284226
N 1.9686820545 0.1476962475 0.8350241640
C 2.7999385014 1.1915586882 0.7069185705
N 3.8169509755 1.2775349159 -0.1467602362
O 2.5340361049 2.1879105169 1.5405035200
C 3.3680876175 3.3721161601 1.4597644394
N 1.4088471645 -1.9692674516 0.0136205094
C 0.1871539433 -2.2027699892 0.6551499869
O -0.4290692040 -3.2348918531 0.4450574718
N -0.2466478355 -1.1964608408 1.4856735809
S -1.7776004758 -1.2240861810 2.2358369156
O -1.8829890292 -2.4267178476 3.0651566688
O -1.8637856265 0.0984648679 2.8711569008
C -2.9546752380 -1.3497781254 0.8817872320
C -3.7813534828 -2.4730350474 0.9056903478
C -4.7634188175 -2.6212726115 -0.0634420618
C -4.9085855043 -1.6473704314 -1.0469506624
C -4.0729657489 -0.5377372444 -1.0590724547
C -3.0718008980 -0.3524611822 -0.0996480191
C -2.1940615978 0.8707558257 -0.2246216458
C -1.1790993327 0.6975212711 -1.3659638355
C -0.3806343138 1.9484884181 -1.6148515215
F 0.2405965158 2.4077286743 -0.4978465202
F 0.5884548965 1.7458943504 -2.5446410346
F -1.1545006198 2.9682992407 -2.0699285203
H 5.9673618575 0.7632576805 -1.4950457008
H 5.3827615269 -0.7660782301 -2.2347504557
H 4.7710920957 0.8032142827 -2.7919129317
H 3.2906448099 3.8203908455 0.4669702268
H 2.9674307777 4.0431138807 2.2180414859
H 4.4074767854 3.1182221473 1.6776989699
H 1.6729449927 -2.7046139797 -0.6303672039
H 0.3332779823 -0.3496199358 1.5813208819
H -3.6511940107 -3.2206764464 1.6785488184
H -5.4094825400 -3.4922230594 -0.0464836104
H -5.6766992297 -1.7493631511 -1.8066645335
H -4.1958654462 0.2189457908 -1.8292687306
H -1.6734310514 1.0953450148 0.7058317230
H -2.8389561885 1.7267541624 -0.4495374563
H -0.4700574267 -0.1050673314 -1.1460632622
H -1.6810048742 0.4484504423 -2.3058997450
