25
CONF1
C 3.7614344740 0.7074049172 0.2928383312
C 3.6756385595 -0.6385087724 0.6529160570
C 2.4451661236 -1.2794860881 0.6689491858
C 1.2879336817 -0.5773247416 0.3243126627
C 1.3738028259 0.7772870780 -0.0381451413
C 2.6164559891 1.4120660815 -0.0511870392
C 0.1613778349 1.5525316715 -0.4100299846
O 0.2374567816 2.7315602558 -0.7270758635
C -1.1429814118 0.8386297548 -0.3806016377
C -2.2933127919 1.5342686097 -0.7206186593
C -3.5284060163 0.8817055641 -0.6988855496
C -3.6250172778 -0.4507764190 -0.3428419911
C -2.4722646164 -1.1710723553 0.0042395122
C -1.2112514781 -0.5248855063 -0.0126689494
C -0.0156558714 -1.2738839899 0.3479046342
O -0.0764709302 -2.4752224397 0.6717612188
O -2.6063786159 -2.4547825789 0.3419814342
H 4.7260992455 1.2043228432 0.2816914218
H 4.5734363609 -1.1857129189 0.9212608727
H 2.3567189950 -2.3240767585 0.9455184673
H 2.6573722461 2.4580465933 -0.3345887861
H -2.2086196158 2.5783075233 -0.9981226714
H -4.4281303167 1.4272378365 -0.9653259292
H -4.5781900177 -0.9675829837 -0.3221861956
H -1.6862150576 -2.7800529766 0.5489048001
