47
CONF8
C 3.8577975942 -2.7981631446 -3.2613187215
C 3.8919385678 -1.4966697013 -2.5639386598
C 2.9623377410 -0.7701153385 -1.8646934670
C 3.6829015041 0.3995387572 -1.4608371717
N 4.9242267721 0.3821081233 -1.8815458278
O 5.0601145486 -0.8315004502 -2.5717987970
C 3.1824035371 1.5622023188 -0.7065795664
C 2.2238541797 2.3990207612 -1.2853347774
C 1.6552895508 3.4730803361 -0.6284451651
C 2.0682389029 3.7359587233 0.6726600122
C 3.0204995201 2.9387301573 1.2976339685
C 3.5637420031 1.8592507128 0.6085850524
Cl 4.7089218710 0.8289381578 1.4283298009
F 1.8296178662 2.1188978279 -2.5388778135
C 1.5552441317 -1.1546973801 -1.6494527855
O 0.9841091623 -1.9909410599 -2.3387309667
N 0.9266388863 -0.5026546872 -0.6158501025
C -0.4798940196 -0.6044093631 -0.4020483044
C -1.0264897959 -1.2397443140 0.9251516679
N -1.5813745270 0.0733234177 1.2724213689
C -1.1957766196 0.6840337752 0.0770219181
O -1.3771460156 1.7934699588 -0.3530919232
C -2.8736833152 0.1045731348 1.9107922549
C -3.7170290347 -1.0471091960 1.2453803331
S -2.4656547433 -2.3901156039 0.8685230896
C -4.3384907325 -0.5197480375 -0.0494833711
C -4.7935050686 -1.6258061213 2.1595598212
C -2.7138666557 -0.0816428961 3.4106160716
O -1.8411766060 -0.7184413721 3.9428505463
O -3.7031399385 0.5555789662 4.0852591248
H 3.9843036579 -2.6489506463 -4.3389063429
H 4.6751280938 -3.4366470021 -2.9126542282
H 2.8959285998 -3.2785435586 -3.0857697141
H 0.8969729066 4.0645399679 -1.1260371326
H 1.6346346993 4.5700906059 1.2132647627
H 3.3358674273 3.1389597292 2.3140711274
H 1.4499513909 0.1621711174 -0.0654477685
H -0.9501479325 -1.0435505684 -1.2869260469
H -0.2720270575 -1.6187355989 1.6187551885
H -3.3553969026 1.0679376070 1.7128596670
H -3.5922810750 -0.0558443544 -0.6997993353
H -5.1081977849 0.2270342149 0.1804305865
H -4.8033827362 -1.3389713651 -0.6034371815
H -4.3665129277 -2.0473192778 3.0731081045
H -5.5148992936 -0.8470953305 2.4281963178
H -5.3345846735 -2.4214950179 1.6399195235
H -3.5660061617 0.3694725230 5.0284140638
