39
CONF131
C 4.4757899169 -0.4346445103 -3.3152430348
C 4.2335079397 0.3095341650 -2.0036479800
C 2.7500309955 0.3861913901 -1.6462630371
C 2.5243723336 1.1412845499 -0.3374457473
N 1.1111895145 1.2186421961 0.0344822872
C 0.5164279102 0.2294452647 0.7151442519
O 1.0748701914 -0.7967416078 1.1046400831
N -0.8681988797 0.4427060614 0.9917772835
C -1.5768751718 1.6504178345 1.1026454399
C -1.1793128421 2.9801042713 1.1705073170
C -2.1873503547 3.9315827994 1.3301792781
C -3.5342043758 3.5642090197 1.4348059955
C -3.9207599408 2.2275367474 1.3989830376
C -2.9270356681 1.2657919354 1.2376964614
N -3.0542612671 -0.1179517062 1.2261161931
C -1.8370553360 -0.5710549463 1.0883901588
N -1.4336263346 -1.8813754924 1.0327041665
C -2.2552993772 -2.9805323037 0.8701804448
O -3.4556637718 -2.9703639624 0.7013695646
O -1.4868902005 -4.0892100109 0.9232736062
C -2.2047363785 -5.3344991924 0.7458552105
H 3.9641992364 0.0630543742 -4.1461854958
H 4.0981421259 -1.4612567713 -3.2563562528
H 5.5425436000 -0.4809158389 -3.5548620446
H 4.6420205324 1.3261429647 -2.0736512045
H 4.7752516022 -0.1891040167 -1.1894455094
H 2.1989322213 0.8882635509 -2.4519082468
H 2.3370042010 -0.6262132826 -1.5534547811
H 2.8951936648 2.1681787270 -0.4205630165
H 3.0603221126 0.6539675137 0.4823134576
H 0.5385480860 1.9065503139 -0.4334270555
H -0.1414301002 3.2877130998 1.1211912322
H -1.9130958654 4.9801070018 1.3802128561
H -4.2875845197 4.3355619292 1.5577308131
H -4.9601275952 1.9337011852 1.5028202287
H -0.4312076637 -2.0340287465 1.1140319754
H -2.6870582048 -5.3558610031 -0.2340913587
H -2.9514946976 -5.4552950961 1.5338863895
H -1.4450758292 -6.1116399054 0.8156074350
