24
CONF90
C 2.4129556368 0.8321924115 0.9893184045
C 1.2402241101 -0.1296688566 1.0569106995
C 0.3221705043 -0.0298004610 -0.1690042101
C -0.8002182264 -1.0796988691 -0.1144061576
C -1.9238701658 -0.7724822125 -1.1254283740
C -2.7092470420 0.4461435427 -0.7226728112
O -2.8869811224 1.3755142219 -1.4860968381
O -1.4120050774 -0.6385185304 -2.4438542670
O -0.2837850112 -2.3901053415 -0.3211585540
O 1.1362348939 -0.2310854343 -1.3295549416
O 0.4758146919 0.0917723439 2.2465202560
O 1.8736492810 2.1639386225 0.9554708034
H 3.0330875614 0.6883499661 1.8837376381
H 3.0177076624 0.6265198126 0.0975392385
H 1.6348223562 -1.1506330288 1.1200491785
H -0.1320841821 0.9746519719 -0.1818833032
H -1.2473814070 -1.0666379943 0.8857871064
H -2.6337608575 -1.6185503034 -1.0726294707
H -3.1313432466 0.4394633889 0.3001391761
H -1.8167108530 0.1651742174 -2.8156824021
H 0.3856830059 -2.3185198866 -1.0191150842
H 0.5311388886 -0.2045509165 -2.0895850361
H 0.3315317500 1.0477346347 2.3045646355
H 2.5823663305 2.7787964255 1.1767273194
