27
CONF2
C 2.0589742233 1.5211687518 3.1717531485
C 2.8882633960 1.0776632940 2.1443809726
C 2.5019256256 -0.0020410083 1.3533812524
C 1.2905278302 -0.6521816600 1.5922039525
C 0.4650607028 -0.2074983714 2.6294469031
C 0.8449341500 0.8779159715 3.4120539109
C 0.8714664596 -1.8235974073 0.7522740766
O -0.3762440869 -1.5351394066 0.0322473981
C -0.2645032402 -0.7543926534 -1.0551839737
O 0.7754242838 -0.3268317267 -1.5087723485
C -1.5920767461 -0.4869631255 -1.6341420246
C -1.9304511989 0.2223097169 -2.7668719846
N -3.2589306704 0.3091001803 -3.0535977338
C -3.9496914775 -0.3263338142 -2.1528601571
S -3.0442806664 -1.0843627664 -0.8815345010
Cl -5.6626504925 -0.4290720136 -2.1896059681
C -0.9641325781 0.9063371645 -3.7094116984
F -0.0813139322 0.0339502957 -4.2425587966
F -1.6177662130 1.4866063234 -4.7333447459
F -0.2598000900 1.8765616952 -3.0859937317
H 2.3574187869 2.3653491117 3.7855981715
H 3.8337870233 1.5758301109 1.9539057871
H 3.1418826611 -0.3423823557 0.5445106158
H -0.4765287307 -0.7147185665 2.8220216197
H 0.1985712006 1.2184851015 4.2150115036
H 0.6085217567 -2.6871479273 1.3656957492
H 1.6416121182 -2.0986151051 0.0287688093
