21
CONF11
F 0.3000149689 -1.3765759571 -0.6152580227
C 0.2606711249 -0.2061952851 0.0756318218
F 0.4046551715 -0.4900827762 1.3974163624
C 1.4703268136 0.6705977253 -0.3724937017
F 1.2115668980 1.9553491593 0.0296443334
F 1.4986335830 0.6670254908 -1.7382243209
C 2.8110701335 0.2357370590 0.1799582560
C 3.2508822189 -1.1807636444 -0.2040354187
O 4.6215437813 -1.3851803876 0.1295706899
C -1.1453990064 0.4454332188 -0.1268043571
F -1.1914409265 1.0647375193 -1.3282143027
F -1.3497232045 1.3562151208 0.8500801185
C -2.3367643197 -0.5659751986 -0.0801850266
F -2.2573375793 -1.3367451388 1.0150240109
F -2.3490108793 -1.3477727512 -1.1652899527
F -3.4859696453 0.1228250085 -0.0396608184
H 3.5381998775 0.9501602176 -0.2213243652
H 2.7852402108 0.3551131732 1.2677241700
H 3.1813998914 -1.3139842530 -1.2871259872
H 2.6118197767 -1.9367566669 0.2706819175
H 4.6964950379 -1.4437108574 1.0883020334
