49
CONF43
C -1.5279366594 -0.9501925769 -1.4751576384
C -2.6848408050 -0.8478371468 -0.5040743714
C -2.4248121356 -0.3931317190 0.9530624782
C -2.8312764012 -1.8403447466 0.6112508251
C -4.2126087449 -2.2490778814 1.0878152442
C -1.8348090292 -2.9697203924 0.7689908002
C -1.0898243298 -0.0251694375 1.4182072149
O -0.0228350936 -0.5510658261 1.1749941988
O -1.1742623988 1.0842008656 2.2355399932
C 0.0820874087 1.6711470828 2.6624374598
C 0.9179419333 0.7071806761 3.3845470816
N 1.5800070411 0.0121146064 4.0270635446
C 0.7986419517 2.3755622798 1.5287622222
C 1.8692301059 1.7909827664 0.8592435916
C 2.4454734485 2.4659730450 -0.2131524122
C 1.9860994681 3.7193996568 -0.6056750710
C 0.9275276980 4.3007589368 0.0851728019
C 0.3272029722 3.6342757402 1.1479940618
O 3.5334638258 1.9534351536 -0.8909062712
C 3.5762654524 0.5918452016 -1.1545816376
C 4.8200831626 -0.0251284007 -1.0737901682
C 4.9299005991 -1.3742321064 -1.4004093785
C 3.8075103861 -2.0992516625 -1.7947757449
C 2.5691991709 -1.4639043900 -1.8722011778
C 2.4449850875 -0.1136438008 -1.5593502394
C -3.9124131372 -0.2442241967 -1.1582449765
H -1.3267123674 0.0323945462 -1.9164630429
H -1.8008262446 -1.6324829608 -2.2884928640
H -0.6066996888 -1.3067141424 -1.0184569685
H -3.2138432479 0.2171800090 1.3797951081
H -4.1464901914 -2.6559755329 2.1024214931
H -4.9225925313 -1.4214946883 1.1048859400
H -4.6138021642 -3.0339478187 0.4361511659
H -1.7978081234 -3.2888148448 1.8163233898
H -0.8246234224 -2.7078893250 0.4626728994
H -2.1719069734 -3.8248277054 0.1717622306
H -0.2335330737 2.4149603245 3.4015976270
H 2.2415303641 0.8165314017 1.1527430650
H 2.4594047588 4.2233431490 -1.4415970581
H 0.5671072883 5.2800431158 -0.2122014989
H -0.5035575040 4.0860159644 1.6810202535
H 5.6828895244 0.5524607739 -0.7590060093
H 5.8986333316 -1.8599563376 -1.3378342838
H 3.8966352649 -3.1518506555 -2.0420463021
H 1.6900644729 -2.0182955988 -2.1862587746
H 1.4830695733 0.3838362485 -1.6236828745
H -4.7240436664 -0.0567743177 -0.4546239730
H -3.6490176744 0.7081313421 -1.6305874134
H -4.2838777084 -0.9158236482 -1.9412150724
