53
CONF251
C -1.3173788706 4.4214760395 -1.5197946419
C -1.2240011499 4.3055731331 -0.0120167828
O -0.9937013815 2.9254091716 0.3756501508
C 0.2879652521 2.4890874517 0.3809159094
O 1.2426641456 3.2234843378 0.1490056346
C 0.3573906334 1.0699290768 0.7074775987
C 1.5571561019 0.4273592868 0.6695528802
N 1.6428536799 -0.8786118414 1.0659085514
C 0.6228498715 -1.5727471898 1.6705174579
C -0.6186909796 -1.0082831828 1.7296683609
C -0.9268139356 0.3046977119 1.0126356929
C -1.7039235541 0.0477639866 -0.2794589579
C -1.0946192220 -0.7260427597 -1.2753696355
C -1.7162341205 -1.0025180022 -2.4854279211
C -2.9909010744 -0.4995069227 -2.7340069892
C -3.6271451680 0.2711107294 -1.7687049817
C -2.9831819632 0.5344052699 -0.5612406389
Cl -3.8760368979 1.5228382657 0.5982310489
C -1.6958295124 -1.6933030623 2.4377242732
O -1.6152257245 -2.7376913938 3.0723518095
O -2.8655638256 -1.0142646308 2.3196799869
C -3.9996069692 -1.6017910318 2.9881326483
C 1.0338140193 -2.9047330462 2.2191795332
C 2.8939351641 1.0178601479 0.2468190603
O 3.8637911823 0.0025979062 0.0105680448
C 3.7573872438 -0.5656151990 -1.3080431992
C 4.7291978320 -1.7288516735 -1.4052903285
N 4.4691006135 -2.8534229056 -0.4963542656
H -1.5508613712 5.4550994642 -1.7936170811
H -2.1101651691 3.7733101615 -1.9055375017
H -0.3707309392 4.1437282757 -1.9910968125
H -2.1713439145 4.5642686054 0.4667933496
H -0.4264098477 4.9321343872 0.3958566892
H 2.5645637920 -1.2955808342 1.0170549282
H -1.5532654532 0.9175504716 1.6613879326
H -0.0992307163 -1.1177501496 -1.0846759530
H -1.2088222284 -1.6061885478 -3.2308358820
H -3.4938633900 -0.7029411113 -3.6737685406
H -4.6197409794 0.6697231215 -1.9467176881
H -3.8169830211 -1.6715790820 4.0638179713
H -4.8333068358 -0.9296692122 2.7850950369
H -4.2053267752 -2.5982355142 2.5881437432
H 2.0405357519 -3.1602132261 1.8775779675
H 1.0288182992 -2.8883445915 3.3126572234
H 0.3377458462 -3.6858911828 1.9118431647
H 2.7621000169 1.6506128240 -0.6357655998
H 3.2801050538 1.6500704554 1.0536164565
H 2.7267406142 -0.9127124437 -1.4895428955
H 3.9990993120 0.2043874203 -2.0563982632
H 4.7063779925 -2.0937627882 -2.4395906748
H 5.7453105487 -1.3603180536 -1.2186062278
H 3.5129905602 -3.1772260703 -0.6159985035
H 4.5464113359 -2.5366804653 0.4651849557
