82
CONF58
C -2.7810525066 3.1225584520 -0.8239960350
C -2.0701220905 2.4467916545 0.3158366172
C -1.0353266156 3.0353444020 0.9290887092
C -2.5995802994 1.1180752978 0.8012826793
C -3.9237439238 1.2682399106 1.5789224128
C -4.3559407606 -0.1815079713 1.7749327133
C -4.0181958609 -0.8885112272 0.4374291382
C -2.9781950392 0.0544304449 -0.2641750153
C -1.8942127719 -0.7266904364 -1.0440448681
C -0.9705246486 0.2055039588 -1.8327275091
C 0.2346722780 -0.5558758636 -2.3659449565
C 1.1698025376 -1.0458791655 -1.2374971321
C 2.3836065573 -0.0220155577 -1.0389211369
C 2.0101801863 1.4760259386 -1.1653983606
C 3.2192890321 2.4026101926 -0.9820618438
C 3.9227200597 2.2353916628 0.3598054696
C 4.2429244978 0.7491069197 0.6783040296
C 3.0312555892 -0.1988747820 0.3632502703
C 1.9590933168 -0.0765718655 1.4814071428
C 0.5116328919 -0.3871244746 1.0862720696
C 0.3903880491 -1.5071079198 0.0540577629
C -1.1212163038 -1.8705710636 -0.2770813507
C -1.9408331095 -2.2267555756 0.9880213833
C -3.4382153803 -2.2915144062 0.6816456032
C -1.1301610496 -3.1481755677 -1.1645449175
C 1.0768757771 -2.7608049489 0.6395723373
C 5.5096164071 0.3721187254 -0.1212683552
C 4.6553639121 0.6001666050 2.1563946973
O 3.0773610234 2.8853729388 1.3355972022
C 3.3391866287 -0.4062792159 -2.1928072834
C -5.2559371740 -0.9704644372 -0.4617051547
O -6.2377379529 -1.9226823122 -0.0268024532
H -2.4072223631 4.1393394913 -0.9677996285
H -3.8618653961 3.1708663768 -0.6483726490
H -2.6407974775 2.5707837355 -1.7599661649
H -0.5181877779 2.5520384927 1.7545301553
H -0.6760784468 4.0140921007 0.6215205415
H -1.8718395187 0.6999743027 1.5036872857
H -3.7910275083 1.8178691363 2.5161401179
H -4.6583200070 1.8090949672 0.9694837088
H -3.7703824088 -0.6277185594 2.5878372019
H -5.4126910799 -0.2825218888 2.0512378868
H -3.5298601856 0.6095366205 -1.0392862326
H -2.4800840475 -1.2632596166 -1.8036954148
H -1.5361011499 0.6487493909 -2.6621408952
H -0.6356734224 1.0379479210 -1.2093404038
H 0.7913335961 0.0675134742 -3.0710431330
H -0.1262369255 -1.4049652883 -2.9568026888
H 1.6635628385 -1.9524327692 -1.6093248080
H 1.2582878632 1.7434158758 -0.4162833337
H 1.5685818332 1.6880699292 -2.1446331059
H 3.9470818255 2.2522452555 -1.7848711152
H 2.8937957527 3.4463912745 -1.0632176454
H 4.8845420307 2.7750072694 0.3306605053
H 3.4497567480 -1.2146213702 0.3927759933
H 2.2545868496 -0.7304770182 2.3089371398
H 1.9720480487 0.9399324097 1.8782361356
H 0.0392962265 0.5135626548 0.6923346816
H -0.0298407862 -0.6427149878 2.0035811618
H -1.6049206353 -3.1891768227 1.3875561679
H -1.7876164878 -1.4903127626 1.7835212037
H -3.6170416172 -2.9298050269 -0.1917384452
H -3.9748634050 -2.7597363472 1.5149718646
H -0.3689299076 -3.1204336030 -1.9465866666
H -2.0975152830 -3.2790317701 -1.6569143988
H -0.9479710998 -4.0431573832 -0.5626302458
H 0.5515541879 -3.1126862402 1.5336282581
H 2.1058945442 -2.5483471247 0.9311623299
H 1.1130351641 -3.5792789776 -0.0829346155
H 5.4780743346 0.6862113098 -1.1632830056
H 5.6661367447 -0.7112891117 -0.0987569297
H 6.3842046328 0.8487282837 0.3347268288
H 3.8592724599 0.8380632686 2.8644382945
H 5.5093391908 1.2539551629 2.3710716665
H 4.9705202699 -0.4319046706 2.3497564355
H 3.5314466734 2.8589009074 2.1863325087
H 3.8758987387 -1.3312234755 -1.9550949955
H 4.0755752893 0.3581634678 -2.4332185654
H 2.7638243153 -0.5837341932 -3.1070202058
H -5.7087149498 0.0296483332 -0.5565093778
H -4.9536531467 -1.3007241582 -1.4634068855
H -6.5831901914 -1.6248782624 0.8239004368
