59
CONF154
C 3.5079738159 -3.4493786918 0.0211669878
C 4.9468430311 -3.7667936883 0.4393095576
C 5.6790516504 -2.4710827083 0.0834565969
C 4.7180768969 -1.3415595236 0.5248643382
C 3.2980729518 -2.0018182920 0.5033234335
C 4.8067412915 -0.1268420859 -0.3919196034
C 3.9672600432 1.0433986119 0.0564491103
O 3.5556497321 1.8787459621 -0.7354903110
N 3.6803836265 1.1504771076 1.4232205277
C 4.1763468333 0.2736925454 2.3949153976
O 3.9024010418 0.4426836472 3.5744509435
C 5.0698678846 -0.8435464114 1.9269035884
C 2.8187048476 2.2586217927 1.8874287453
C 1.3754903414 1.8139021333 2.1191187607
C 0.6640763296 1.3579110716 0.8461011422
C -0.7761006875 0.9455314806 1.1358855333
N -1.4383326780 0.2914132413 -0.0008819733
C -1.6466891299 1.2267135872 -1.1147150139
C -2.3393702049 0.5282745149 -2.2814015889
N -3.6131387275 -0.0447565384 -1.8457326988
C -3.4254390090 -0.9722336835 -0.7293910354
C -2.7315842242 -0.2591789487 0.4266542103
C -4.7977249125 0.6094569035 -2.0412509515
N -4.8041353047 1.6446406818 -2.9168121658
C -5.9809150584 2.2273344423 -3.1357615481
C -7.1578994650 1.8268576353 -2.5137230293
C -7.0385590603 0.7624104008 -1.6275882703
N -5.8848036504 0.1478411130 -1.3754741035
H 2.7688583949 -4.1410509817 0.4359320474
H 3.4311874980 -3.4963919302 -1.0719622596
H 4.9950872795 -3.9473611099 1.5206557408
H 5.3615513638 -4.6440258196 -0.0663733996
H 5.8163170673 -2.4233632064 -1.0044298613
H 6.6658541265 -2.3747486390 0.5477731976
H 2.6032520098 -1.4522007900 -0.1397815266
H 2.8700815009 -2.0005155444 1.5127602165
H 5.8467062343 0.2282464629 -0.4447925374
H 4.4957682722 -0.3654145028 -1.4132643113
H 5.0121850362 -1.6379025861 2.6757101847
H 6.0986198837 -0.4547776019 1.9349611345
H 2.8633311875 3.0378779701 1.1251194742
H 3.2506518353 2.6406091730 2.8147229432
H 1.3596310507 1.0117561760 2.8663693775
H 0.8392897921 2.6660001037 2.5564074446
H 1.1903235504 0.5015117689 0.4064906696
H 0.7000456996 2.1690091209 0.1106074545
H -1.3534151350 1.8288705310 1.4775337626
H -0.7745860273 0.2274649123 1.9667450171
H -2.2575021423 2.0974863660 -0.7983210258
H -0.6788362452 1.6030077246 -1.4602711069
H -1.7071260220 -0.2933658368 -2.6417036901
H -2.5072612970 1.2279250435 -3.0988001575
H -4.3878147729 -1.3702255716 -0.4112550258
H -2.7972465367 -1.8004130282 -1.0815454522
H -3.4030425064 0.5364162685 0.8099121432
H -2.5588700843 -0.9731558228 1.2406683553
H -5.9800931318 3.0580155517 -3.8411589484
H -8.1048559585 2.3164193114 -2.7023932452
H -7.9089287385 0.3861080132 -1.0904901591
