15
CONF16
N -0.2514873966 1.6206752568 0.5029936382
C -0.1582740863 0.1804589396 0.3505453542
C 0.2055322802 -0.3233887917 -1.0661606595
S 1.7901324913 0.3737343698 -1.6929068014
S 3.2024367868 -0.5165206661 -0.4500676038
C -1.5002210515 -0.4403448883 0.6905987898
O -1.3652666729 -1.7307608627 1.0823708588
O -2.5675113941 0.1121842466 0.5761294741
H -1.1357862819 1.9418174550 0.1207643433
H 0.4972465559 2.0660079500 -0.0180050915
H 0.5890608520 -0.2282510863 1.0441295349
H -0.5452924199 0.0184409504 -1.7915096437
H 0.2617325389 -1.4158934116 -1.0986587434
H 3.2387525991 0.4180220863 0.5249528840
H -2.2610551028 -2.0761815319 1.2248239783
