37
CONF8
C -5.4188599769 2.1472523885 1.5282100993
C -5.6338630337 0.8512436796 0.7591081968
N -4.9293137349 -0.2823799354 1.3752986917
S -3.8193969777 -1.2325313448 0.6219048460
O -4.1112098880 -1.2553167939 -0.8082957719
O -3.6244227150 -2.4140196227 1.4549643148
C -2.2045640468 -0.2136125644 0.7709987513
C -1.0361679039 -0.7887643157 -0.0874345043
C 0.3729314050 -0.2464411761 0.3436903387
C 1.4778198812 -0.4579208802 -0.7515813468
C 2.9365581644 -0.3392913817 -0.1828781079
C 4.0141943769 -0.1078299937 -1.3008899448
C 5.4707619508 -0.4386949396 -0.8283334178
C 6.5877970254 0.1683605927 -1.7395466035
F 6.6586360785 1.4954438704 -1.5943883984
F 6.3487704336 -0.1221538247 -3.0260745761
F 7.7657296122 -0.3627957061 -1.3860125246
F 5.6346178016 -1.7779217333 -0.8182312919
F 5.6581884550 0.0438175498 0.4223495896
F 3.7236507171 -0.8929236449 -2.3625198915
F 3.9686347798 1.1878820043 -1.6852036533
F 2.9844762950 0.7024280972 0.6780704228
F 3.2379072582 -1.4782707496 0.4788648262
F 1.3255288854 -1.6869201416 -1.2910107200
F 1.3142373666 0.4768888181 -1.7149003188
F 0.2654442165 1.0790270272 0.5961213786
F 0.7523731825 -0.8835628234 1.4738584251
F -1.0356807256 -2.1330206722 0.0341842123
F -1.2533175135 -0.4554748438 -1.3787381894
F -2.4832005455 1.0472187534 0.3689807663
F -1.8566357892 -0.1868566067 2.0756575883
H -5.7748644433 2.0582831116 2.5598877201
H -4.3627795831 2.4259816610 1.5485657813
H -5.9825899603 2.9555434767 1.0533019049
H -6.7024541417 0.6072197787 0.7080965032
H -5.2773727969 0.9363991683 -0.2708817977
H -4.9915644274 -0.4262863996 2.3748069871
