32
CONF4
C -3.6870527454 -0.6177156897 0.3937712661
C -3.6905305902 0.7104854064 0.0837708307
C -2.4928752182 1.4112616835 -0.2043141636
C -1.2635945424 0.7038433101 -0.1329452371
C -1.2597509371 -0.6959470137 0.1914569237
C -2.4857161708 -1.3683421469 0.4414892034
N -2.5900719641 -2.7035580063 0.6969533118
C -0.0001859354 -1.4241090242 0.2779835223
O 0.0024603690 -2.6598213345 0.5565857005
C 1.2569531422 -0.7229538171 0.0480993592
C 2.4866613835 -1.4293531514 0.1230643797
C 3.6901752019 -0.7092450366 -0.0815555856
C 3.6892149454 0.6292353723 -0.3434568367
C 2.4843328692 1.3705357723 -0.4305120590
C 1.2552384658 0.6850063708 -0.2389601480
C -0.0057530761 1.4064649579 -0.3557101920
O -0.0083471526 2.6401999477 -0.6431754936
N 2.5875477085 2.7110743921 -0.6574754460
N 2.5885774925 -2.7712661256 0.3440517148
N -2.6038498564 2.7230654863 -0.5638205826
H -4.6240750426 -1.1261262964 0.6040033689
H -4.6303518973 1.2547648271 0.0477641604
H -1.7312340307 -3.2015807170 0.8873333501
H -3.4642998378 -3.0481064242 1.0596784345
H 4.6321479472 -1.2479990276 -0.0261344229
H 4.6305958466 1.1517051431 -0.4898534627
H 3.4733227380 3.0687446744 -0.9767999238
H 1.7331045202 3.2037461799 -0.8790208685
H 3.4944925124 -3.1422283850 0.5814331051
H 1.7515665590 -3.2485932118 0.6495585618
H -1.7450176519 3.2558940055 -0.5987178536
H -3.4736850683 3.1909178518 -0.3645451347
