45
CONF1
C 1.3543970451 -3.2554875365 0.7196501608
O 2.0831493615 -2.6370389455 1.8044289559
C 2.3668819181 -1.3368008014 1.6937657760
C 3.0726031263 -0.7308366161 2.7263310254
C 3.3444354309 0.6233062993 2.5498606637
O 4.0302178078 1.2427172106 3.5222825430
C 4.3149028749 2.6425689966 3.3397725696
N 2.9587110506 1.3206251034 1.4784447373
C 2.2847513781 0.6232800104 0.5597301732
N 1.8827322715 1.3703749450 -0.5415679801
C 1.0844515251 1.0487742989 -1.6410547165
O 0.7567282970 1.9116346460 -2.4373827831
N 0.7253450197 -0.2803832396 -1.7394566669
S -0.5057428893 -0.7702242419 -2.8048872677
O -0.0713145232 -0.5441115409 -4.1779202758
O -0.8686634131 -2.1035096373 -2.3303039574
C -1.8516915062 0.3414009031 -2.4594896113
C -2.6954314082 0.3666075280 -1.3457455961
C -3.6457757053 1.3505266480 -1.6675911930
N -3.4079045634 1.8910669598 -2.8618390362
N -2.3185476307 1.2741924969 -3.3352025899
C -1.7738503462 1.6956550651 -4.6241203374
C -2.6172926632 -0.3674498883 -0.1061231852
N -3.6709476913 -0.5430255950 0.7024265695
N -3.1225900033 -1.2003245530 1.7130598800
C -3.8774990556 -1.6483230214 2.8701315296
N -1.8209953811 -1.4299790173 1.5711205199
N -1.4825504850 -0.9038042779 0.4226527933
N 1.9748979221 -0.6714873425 0.6006703086
H 0.3782567022 -2.7825665596 0.5885069635
H 1.2352211765 -4.2952876614 1.0227282511
H 1.9267036192 -3.1970795391 -0.2107906730
H 3.3925674697 -1.2746734960 3.6035160111
H 4.9215238850 2.8011803511 2.4441707288
H 4.8677763610 2.9350025417 4.2324976851
H 3.3897059134 3.2188066207 3.2554280563
H 2.1301418182 2.3486644806 -0.5041962504
H 0.8529824456 -0.8562564950 -0.8952844820
H -4.4789721560 1.6870559840 -1.0674275652
H -1.8654892139 0.8927272627 -5.3580305588
H -2.3599895993 2.5611734257 -4.9312776604
H -0.7218136615 1.9584465875 -4.5041842135
H -4.3429932079 -0.7889138374 3.3581852560
H -4.6514017673 -2.3518384440 2.5535530591
H -3.1776278497 -2.1363856651 3.5483269753
