47
CONF121
C -1.0929483714 1.8921822466 3.0695851221
O -1.9157848545 1.1319718498 2.1514686847
C -1.5100574515 -0.1181796107 1.9281011076
C -2.1203847914 -0.9084302909 1.0130716142
C -1.6476262082 -2.2792308742 0.7865543956
O -2.2221743375 -3.0921513229 0.0799323137
O -0.4953189873 -2.5618126923 1.4403474414
C 0.0036668795 -3.9066173350 1.2685904277
C -3.2700464050 -0.4390119094 0.2081444409
C -4.4959024231 -0.1105327698 0.7918073123
C -5.5738063957 0.3038665919 0.0141448862
C -5.4422537321 0.3946151237 -1.3690655590
C -4.2260931811 0.0870802537 -1.9743234699
C -3.1644151099 -0.3127085785 -1.1806916770
O -1.9683976532 -0.6719431319 -1.8126746512
C -0.8588434727 0.0477555400 -1.5146845296
C 0.3691251024 -0.5785163278 -1.6814993794
C 1.4647165809 0.2056987174 -1.3558419982
O 2.6938861172 -0.3729616495 -1.4803691858
C 3.8074785414 0.3253619628 -1.0366303051
C 4.7172832247 0.7874227296 -1.9698747150
C 5.8862845625 1.4058650492 -1.5332446542
C 6.1419377715 1.5603377624 -0.1720450096
C 5.2316836780 1.0923164560 0.7644834831
C 4.0526664169 0.4650124714 0.3374685585
C 3.1162989927 -0.0288148973 1.2828426349
N 2.3543552195 -0.4281905293 2.0591233898
N 1.3828319599 1.4663846915 -0.9393856644
C 0.1420797557 1.9525778075 -0.8421624266
N -0.9934757009 1.3122500564 -1.1093472885
H -1.0444775871 1.3867024883 4.0385984932
H -0.0888538464 2.0155261327 2.6524433954
H -1.5784253174 2.8616303832 3.1744148241
H -0.6621651860 -0.4722670697 2.5108697887
H 0.2193233284 -4.0998295561 0.2146074696
H 0.9183015109 -3.9509817663 1.8593033718
H -0.7250257097 -4.6347532837 1.6339044532
H -4.6011666011 -0.2002905573 1.8684541638
H -6.5189159426 0.5463914639 0.4887951152
H -6.2812518268 0.7105195166 -1.9803924003
H -4.0909113257 0.1633890882 -3.0479391471
H 0.4592511471 -1.6086224135 -2.0016238624
H 4.5028947538 0.6603076185 -3.0251754612
H 6.6002535195 1.7699771805 -2.2643166337
H 7.0535830984 2.0436131673 0.1609269095
H 5.4179791131 1.2007310248 1.8270114428
H 0.0528410281 2.9863580969 -0.5109082161
