44
CONF1
C -1.0611184205 1.7880553204 2.7881288403
C -1.1847838102 1.4922894584 1.3002088472
C -2.3343735079 0.5287913961 0.9972062937
O -3.2894172600 0.3748330960 1.7234501197
O -2.1638919983 -0.0751185242 -0.1930385960
C -3.2464417513 -0.9487084476 -0.6585679948
C -4.3169943180 -0.0958023769 -1.3132012697
C -2.5914124916 -1.9305249340 -1.6090754232
N 0.0756234282 1.0674716051 0.6765305954
C 0.8790205518 0.1010221276 1.3307294911
C 0.3249100961 -1.0798772369 1.8318901247
C 1.1291566611 -2.0096866922 2.4782177240
C 2.4862575595 -1.7712636423 2.6105230714
C 3.0493496462 -0.5929779241 2.1283031476
C 2.2418182494 0.3508286051 1.5102670760
Cl 4.7519596261 -0.3004746339 2.3271038862
F 3.2590972538 -2.6839031752 3.2190070306
C 0.4269108861 1.6730790548 -0.5247222147
O -0.1340802132 2.6851805459 -0.9235349209
C 1.4823457415 1.0170182565 -1.3547179326
C 2.4128819953 1.8309176211 -2.0028001175
C 3.3681521783 1.2664648628 -2.8386773039
C 3.3758738497 -0.1084219572 -3.0608328114
C 2.4240646288 -0.9178617831 -2.4458846083
C 1.4852930352 -0.3604591725 -1.5863955229
H -2.0087879593 2.1840865269 3.1556948466
H -0.8246580480 0.8913515519 3.3658799031
H -0.2751662509 2.5301095991 2.9499673745
H -1.4509823582 2.4176793714 0.7707623128
H -3.6540639454 -1.4615119474 0.2193295461
H -5.1220143926 -0.7353198263 -1.6878358726
H -3.8939539199 0.4608574089 -2.1550009550
H -4.7447509784 0.6084935589 -0.5959247154
H -2.1324992661 -1.4011779321 -2.4496718546
H -3.3420712830 -2.6221704042 -2.0019545880
H -1.8191524010 -2.5131803109 -1.0987139202
H -0.7320764810 -1.2855057567 1.7121028140
H 0.7186885949 -2.9321381485 2.8733455993
H 2.6782746497 1.2774958149 1.1577275870
H 2.3728983391 2.9034469562 -1.8439157889
H 4.1024080704 1.9000320350 -3.3254910063
H 4.1177351308 -0.5479341730 -3.7196939629
H 2.4156516873 -1.9866547471 -2.6335553946
H 0.7443203123 -0.9888303283 -1.1031694732
