50
CONF23
C -3.9583924716 -1.7788455920 -1.3639312426
C -2.9249685753 -2.3228992884 -2.3222930393
C -1.6608162168 -1.5591694630 -2.6006042047
C -1.5936265919 -2.8617700519 -1.7875235509
C -1.2776514675 -2.9436669932 -0.3532413586
O -1.0354955863 -3.9783788118 0.2332657679
O -1.2686238200 -1.7265657849 0.2633617205
C -0.9156573997 -1.7232593443 1.6733623899
C -2.0965837573 -2.0899831585 2.4592943831
N -3.0282711883 -2.3819768527 3.0756600953
C -0.3895493502 -0.3470053921 1.9943902099
C 0.9835447354 -0.1403641709 1.8978737045
C 1.4982936230 1.1349618094 2.1141073414
C 0.6551739451 2.1986711802 2.4341589260
C -0.7151450226 1.9737548277 2.5222674420
C -1.2484131654 0.7081089972 2.3011267636
O 2.8680423294 1.2500622266 2.0583938895
C 3.4272266100 2.4927734756 1.7800674641
C 4.3789041734 2.9837258352 2.6644783410
C 5.0166367570 4.1872563645 2.3700652771
C 4.6969187136 4.8880328009 1.2096869693
C 3.7396414170 4.3777352360 0.3332993889
C 3.1011751377 3.1728915214 0.6101426196
C -1.4367384371 -0.2230878927 -2.0136625964
C -0.3165298453 0.5001908730 -2.0450150781
C 1.0311922551 0.0827523488 -2.5571018069
F 1.0565399566 -1.2161315021 -2.9133797486
F 1.9948045368 0.2560425698 -1.6183279970
F 1.4104521070 0.8072398654 -3.6397853577
Cl -0.2935228973 2.1332985658 -1.4013160866
C -3.5176224988 -3.1083727979 -3.4718508320
H -4.6162233616 -1.0818855813 -1.8946751067
H -4.5740919481 -2.6014544205 -0.9862906474
H -3.5300929680 -1.2595495426 -0.5053551259
H -1.2452509672 -1.6931526992 -3.5949346859
H -1.2034402290 -3.7222110499 -2.3213962760
H -0.1485014377 -2.4849032455 1.8505870972
H 1.6581866732 -0.9548887021 1.6536191696
H 1.0639753341 3.1862236688 2.6160696528
H -1.3727257046 2.7998148509 2.7725996259
H -2.3191359971 0.5442723519 2.3702902504
H 4.6120916183 2.4252326017 3.5649150178
H 5.7625585437 4.5776750342 3.0550714788
H 5.1937172821 5.8262718562 0.9857618884
H 3.4931426433 4.9141757741 -0.5776112944
H 2.3618605529 2.7605455942 -0.0688218112
H -2.2911201827 0.2539283387 -1.5411586883
H -2.7407061877 -3.4724956895 -4.1495308269
H -4.0821215295 -3.9675411017 -3.0950470298
H -4.2030602567 -2.4710790558 -4.0410624671
