47
CONF76
C -2.8536863208 -1.5864104124 1.6014554200
C -2.9032527450 -0.3409189717 0.7460395004
C -3.6940050233 0.8633997971 1.2051201229
C -2.1704170723 0.8806781291 1.3067899842
C -1.4167795760 1.7641557672 0.4058333321
O -1.8298366697 2.3385578823 -0.5778749117
O -0.1113563619 1.8415136351 0.8151857841
C 0.7585522108 2.5651434310 -0.0949718474
C 1.9363134126 2.9193871736 0.6975930307
N 2.8876233060 3.2007518116 1.2883616245
C 1.1347663425 1.7205871262 -1.2917741899
C 1.6991663407 0.4621754310 -1.0804862642
C 2.0309903425 -0.3366519100 -2.1674242507
C 1.7840073299 0.1505545341 -3.4547302041
C 1.2224303322 1.3923279015 -3.6734621662
C 0.8951729394 2.1893306362 -2.5794301029
F 2.1071699189 -0.6303990540 -4.5060316598
O 2.5455018945 -1.6000790425 -2.0700394661
C 3.2706481574 -1.9307582602 -0.9253720908
C 4.3750315656 -1.1764567850 -0.5427044128
C 5.1114548642 -1.5831788089 0.5654574435
C 4.7514938513 -2.7311387808 1.2705439524
C 3.6477008688 -3.4765343127 0.8641222912
C 2.8950652002 -3.0769497242 -0.2385245963
C -4.4796967776 0.8623187706 2.4413889226
C -5.6746820660 1.4343152937 2.5924972798
Cl -6.5153417651 2.2905474357 1.3292742976
Cl -6.5464394270 1.3831402967 4.1033084317
C -2.8667985642 -0.6217965143 -0.7384654528
H -1.9775146746 -2.1840541941 1.3292670512
H -3.7477359002 -2.1941189102 1.4238827252
H -2.7916668379 -1.3639290750 2.6683504630
H -4.0805673484 1.4736480369 0.3947638992
H -1.7307192476 0.7399504796 2.2884578047
H 0.2677110602 3.4882451520 -0.4235705009
H 1.8773647184 0.0979918534 -0.0738640028
H 1.0478687377 1.7245484554 -4.6909952840
H 0.4461362357 3.1643801173 -2.7333783220
H 4.6507050939 -0.2891883872 -1.1036652299
H 5.9758349056 -1.0032420848 0.8728711228
H 5.3320684780 -3.0440828293 2.1320154517
H 3.3635269540 -4.3720821693 1.4074631482
H 2.0296783865 -3.6413005246 -0.5694084912
H -4.0712070455 0.3626498288 3.3145237393
H -3.6887996161 -1.2978510651 -0.9959880053
H -1.9256110851 -1.1151194223 -1.0074658623
H -2.9678690059 0.2859423682 -1.3353094121
