47
CONF143
C -2.6473860039 1.4449584879 2.4985794929
C -2.3409159110 0.3905442533 1.4590950356
C -3.4584114351 -0.4275269633 0.8533354728
C -2.8217892468 0.6959045484 0.0370081389
C -1.9867788415 0.3351114449 -1.1171119013
O -1.5304827018 -0.7566896469 -1.3797087618
O -1.7465610220 1.4443462291 -1.8855219515
C -0.7769925636 1.2393090142 -2.9529279863
C -1.0599557340 2.2749206058 -3.9441218640
N -1.2525574988 3.0873966356 -4.7413190277
C 0.6302018602 1.3352544632 -2.4113472465
C 1.4020043380 0.1793557747 -2.3074584955
C 2.6593686703 0.2423082887 -1.7252103569
C 3.1311651738 1.4685777076 -1.2595681841
C 2.3786959833 2.6252987230 -1.3592384120
C 1.1180731572 2.5543697493 -1.9398331735
F 4.3533677013 1.5143025419 -0.6954120569
O 3.4478657910 -0.8833961378 -1.6572597688
C 3.6541430181 -1.4499713737 -0.4055596484
C 2.8708195240 -1.1395651864 0.7021333425
C 3.1301499195 -1.7837621223 1.9106674067
C 4.1512457037 -2.7242724669 2.0111248412
C 4.9210896604 -3.0238134158 0.8872058527
C 4.6792952722 -2.3887713823 -0.3256352820
C -4.8541931324 -0.2834932461 1.2731605031
C -5.7210266922 -1.2862103313 1.4181354033
Cl -5.3366871179 -2.9607040570 1.1295476118
Cl -7.3698803941 -1.0236373491 1.9257218303
C -1.0128256225 -0.2992934082 1.6734605951
H -1.8197785292 2.1598533747 2.5488549359
H -2.7506793123 0.9758175626 3.4832362447
H -3.5610168795 2.0024405332 2.2831890004
H -3.1567309599 -1.4199248823 0.5328055220
H -3.3820661505 1.6186737627 -0.0692721353
H -0.9427663580 0.2608543952 -3.4173217522
H 1.0307529703 -0.7786159433 -2.6551336041
H 2.7837129446 3.5607549936 -0.9892279125
H 0.5148261806 3.4532585926 -2.0202932856
H 2.0680568941 -0.4140934939 0.6282468038
H 2.5205732710 -1.5444135973 2.7766175283
H 4.3463149150 -3.2210277951 2.9555404586
H 5.7204801509 -3.7552041969 0.9531697885
H 5.2713236291 -2.6088990186 -1.2076822024
H -5.2316710695 0.7124712423 1.4838657051
H -0.1971668567 0.4315320913 1.6256385680
H -0.8249115106 -1.0807001131 0.9356296598
H -1.0002948884 -0.7536287719 2.6698253537
