39
CONF44
C -1.3560767411 3.6542234528 -0.5406239569
C -1.8039920308 2.2099418789 -0.3313689933
C -0.6118878697 1.3026140736 -0.0251498942
N -1.0098629191 -0.0969510468 0.2218745507
C -1.7199770696 -0.3479233564 1.4878834954
C -1.2621211466 -1.6269618885 2.1711611398
O 0.0137250101 -1.4919563985 2.8485178785
C 1.1114808528 -1.1644964744 2.1253570782
C 1.7400720176 -2.0354139488 1.2205036099
C 2.9046127736 -1.6885444032 0.5465927909
C 3.4769422802 -0.4486200021 0.7979546594
C 2.9213680727 0.4342984638 1.7140845792
C 1.7518844444 0.0622912093 2.3639495873
Cl 1.0616444030 1.1640474073 3.5307616229
Cl 4.9335576191 0.0066229978 -0.0505852402
Cl 1.0662360026 -3.6161146509 0.9323782526
C -1.3632727989 -0.9427102314 -0.7990061654
O -2.2417071251 -1.7832962806 -0.7261211903
N -0.5822081033 -0.8257589812 -1.9900612847
C -1.0524844931 -1.1518013872 -3.2527318435
C 0.0312257908 -1.0721976235 -4.0779305671
N 1.1694587332 -0.7412776458 -3.3646717729
C 0.7769649579 -0.6015846111 -2.1258046196
H -2.2081413676 4.3026041141 -0.7606503350
H -0.8596807444 4.0455974957 0.3537819737
H -0.6521403262 3.7311694325 -1.3758226540
H -2.3102053307 1.8346668779 -1.2298747710
H -2.5310667120 2.1579939271 0.4879567712
H 0.0972348978 1.3451730557 -0.8530702651
H -0.0818375985 1.6554669855 0.8663376802
H -2.8009075205 -0.4291060844 1.3118034374
H -1.5356970781 0.5024087480 2.1499600044
H -1.2403229645 -2.4577525381 1.4632198649
H -1.9545462688 -1.8721746334 2.9798243919
H 3.3523190747 -2.3768564838 -0.1591279269
H 3.3840313371 1.3908095174 1.9200618638
H -2.0881384382 -1.4045986821 -3.4115036231
H 0.0645451643 -1.2361408965 -5.1452332979
H 1.4089712095 -0.3876909812 -1.2746268369
