111
CONF34
C 2.9189408208 -1.1692721957 1.4636820285
N 1.9718735382 -2.0571200462 2.1536164552
C 2.4160468960 -3.3051938702 2.7430909552
C 0.7455528455 -1.9559354469 1.5164716683
C -0.3450498151 -2.8188746476 1.5923342329
C -1.5105597356 -2.4569739526 0.9046299912
O -2.6287442271 -3.2432353129 0.8979362342
C -2.6039529722 -4.4747577928 1.6256641284
C -1.6036077887 -1.2669673928 0.1549144218
C -0.4691931217 -0.4471892478 0.0875338556
C 0.6904205661 -0.7869764494 0.7516164908
C 1.9825741650 -0.0316383033 0.9562473697
C 1.8120942439 1.0514061991 2.0872663830
C 2.1563274088 2.3756336225 1.4066273480
N 3.1179161863 1.9700080714 0.3834827502
C 3.4212140209 3.0112806921 -0.5860323823
C 4.1896334167 2.4425539431 -1.7391123712
C 4.1981412602 1.1412175730 -2.0169171772
C 3.3771997010 0.1107094681 -1.2766283598
C 2.5015182770 -0.6389093954 -2.3280894174
C 1.7584888802 0.2623466925 -3.3129493498
C 4.3650459088 -0.8852432328 -0.6225435671
O 5.3344468711 -0.1135613674 0.1287847504
C 6.6423647595 -0.4301277755 0.0066534870
C 7.4833654570 0.4676625414 0.8605188145
O 7.0598449758 -1.3348715658 -0.6883527558
C 3.7073446523 -1.9110215544 0.3479917318
O 2.8385056252 -2.7541686983 -0.3796450672
C 4.8301118536 -2.8100223824 0.9060035717
O 5.0710768735 -3.8979103444 0.4175268072
O 5.5021294826 -2.2764446585 1.9238857855
C 6.6022318765 -3.0766781088 2.4396094515
C 2.4777752010 0.8040628797 -0.2422286618
C -2.9406883014 -0.8776090142 -0.4803170734
C -4.0041499296 -0.5703965209 0.6019473909
C -3.6122259630 0.4210804459 1.7272305802
C -2.8518698805 1.6916522320 1.3218092887
N -3.6845613226 2.7091000498 0.6760128286
C -4.7027988492 3.1635635432 1.6316730097
C -5.3845977757 2.0553648765 2.4102562082
C -6.6497285481 2.4275126933 3.1342444798
C -6.4489559400 3.5309358351 4.1830081583
C -4.8680733213 0.8209413353 2.4563755081
C -4.3279668502 2.2210651706 -0.5689363389
C -3.3801867884 1.5409664275 -1.5083036603
C -2.8111425686 0.2742116707 -1.4644420778
N -2.0111962278 0.1085936977 -2.5834443003
C -2.0299632231 1.2419043385 -3.3527694945
C -1.3973797813 1.5262334988 -4.5630584010
C -1.6095686615 2.7834588054 -5.1125878607
C -2.4344737681 3.7291875422 -4.4741529856
C -3.0708561727 3.4358367221 -3.2766190734
C -2.8767344237 2.1726605636 -2.6968687262
C -3.5018956174 -2.0418225481 -1.3363226066
O -4.6765430326 -2.3189398472 -1.4416618221
O -2.5275320287 -2.6693731503 -2.0192299310
C -2.9682327933 -3.7326211800 -2.8998417809
H 3.6556081178 -0.7705795867 2.1646897386
H 3.3332460034 -3.1309098905 3.3125837589
H 2.6005463775 -4.0907244091 1.9930725381
H 1.6571052518 -3.6697433778 3.4423591394
H -0.2897066823 -3.7423688626 2.1530202343
H -2.4359531452 -4.2971176174 2.6943551192
H -3.5877192223 -4.9221168643 1.4790475448
H -1.8311537413 -5.1476737997 1.2359417033
H -0.5083466734 0.4676528809 -0.4956725191
H 2.5071827114 0.8518717208 2.9076134388
H 0.7970755362 1.0458249000 2.4907400023
H 2.5913743915 3.1140662108 2.0889601127
H 1.2506877551 2.8232782707 0.9480276348
H 4.0075369951 3.8006013732 -0.0971287006
H 2.4955530110 3.4998202290 -0.9641951760
H 4.7505929873 3.1397177719 -2.3567956648
H 4.7819611285 0.7629400408 -2.8559297769
H 1.7813513714 -1.2660672413 -1.8007858105
H 3.1557178222 -1.3185945226 -2.8880559391
H 1.0787673908 0.9564778791 -2.8082681208
H 2.4409480261 0.8523031643 -3.9309850481
H 1.1509651250 -0.3585378388 -3.9786890509
H 4.8853001225 -1.4456180302 -1.4068720077
H 8.5270631624 0.3965491934 0.5560353609
H 7.1301400422 1.4996145447 0.8043378604
H 7.3898484646 0.1396268269 1.9018241342
H 3.3722405822 -3.5128811538 -0.6703457402
H 7.0263169714 -2.4871912001 3.2507006538
H 7.3383872421 -3.2431040632 1.6500843668
H 6.2222932814 -4.0318480325 2.8084644654
H 1.5715915870 1.1483538537 -0.7798607394
H -4.9131320696 -0.2422913491 0.0981096952
H -4.2580844925 -1.5175807816 1.0832205617
H -2.9599177119 -0.1307790176 2.4201997239
H -2.0054793858 1.4584130817 0.6765314700
H -2.4411591319 2.1446058517 2.2341162780
H -4.2283975166 3.8606120302 2.3400485859
H -5.4603008421 3.7497488056 1.0920067971
H -7.3929482570 2.7709022336 2.4000534642
H -7.0637261108 1.5341359359 3.6158468068
H -5.6962808438 3.2305992093 4.9196007949
H -6.1183783405 4.4674104606 3.7236585291
H -7.3850659879 3.7321280446 4.7127130654
H -5.3968910776 0.0416750216 3.0069125711
H -4.7332511864 3.1011429093 -1.0825776164
H -5.1944390987 1.5789531225 -0.3496389984
H -1.4801061130 -0.7255885310 -2.7803741535
H -0.7648436875 0.7946622092 -5.0545859263
H -1.1318871833 3.0411146805 -6.0527457004
H -2.5755963294 4.7035437774 -4.9316439467
H -3.7075825335 4.1747749644 -2.7990314937
H -3.6496122929 -3.3377045481 -3.6572773905
H -2.0604616690 -4.1194517518 -3.3611284719
H -3.4687384660 -4.5119445661 -2.3201602932
