28
CONF10
O -3.1886886256 2.2233684420 0.6268336584
C -2.6103383342 0.9881383337 1.0554080328
C -2.1240939217 0.1416324927 -0.0970088294
O -1.0255472400 0.8181492232 -0.7648916942
C -0.0742142752 -0.1248230652 -1.2221387141
C -0.6159432770 -1.5106942628 -0.8773832784
C -1.5493372345 -1.2211581954 0.3019442019
O -2.5320127155 -2.2099837019 0.5577042631
N 1.2395804881 0.1477221222 -0.5521340365
C 1.3429585236 0.8663716465 0.6040598399
C 2.5260592202 1.0923308518 1.2230862858
C 3.7435978929 0.5708464037 0.6645975964
O 4.8773913709 0.7066121728 1.1255842647
N 3.5498463476 -0.1513959606 -0.5219493730
C 2.3574078940 -0.4095638889 -1.1638202214
O 2.2826640883 -1.0775186390 -2.1891722981
H -2.4833409920 2.7537761009 0.2346860076
H -1.7891685317 1.1611192672 1.7665594140
H -3.4005997961 0.4342846103 1.5736178377
H -2.9401973699 -0.0012377027 -0.8232299394
H 0.1051202317 0.0144400353 -2.2908942477
H 0.1731717268 -2.2291007406 -0.6514434380
H -1.2068369181 -1.8833266342 -1.7221766232
H -0.9765293346 -1.1218538661 1.2326245701
H -3.0348652640 -2.3557297579 -0.2558548647
H 0.4087991509 1.2583607058 0.9870817476
H 2.5720588823 1.6701741533 2.1359216991
H 4.3730586054 -0.5509395588 -0.9576118610
