39
CONF3
N 1.7605088441 -0.2281466375 2.3262018774
C 2.0218946808 -1.3755072546 1.6433830333
N 2.1821985645 -2.4940604297 2.3659250135
C 2.4845981928 -3.6171927642 1.6917893945
N 2.5947382020 -4.7645786035 2.4323651734
N 2.6417512915 -3.7332838343 0.3603679886
C 2.4741314696 -2.5921851489 -0.3293886343
C 2.1669333791 -1.3692548138 0.2321234576
C 1.9977717762 -0.1198358479 -0.5857769338
C 0.5975426167 0.4670114324 -0.5260162126
C -0.5063135920 -0.3675393370 -0.7029455953
C -1.7949863355 0.1684459937 -0.6585212240
O -2.9363817643 -0.5538971104 -0.8223803247
C -2.7948332839 -1.9614213630 -1.0608998715
C 0.4240595186 1.8312208885 -0.2948879594
C -0.8673064283 2.3704465179 -0.2494426756
O -1.1465463236 3.6843964405 -0.0330779681
C -0.0364901216 4.5719720762 0.1615731241
C -1.9823028250 1.5396582841 -0.4221571326
O -3.2527425549 2.0575604177 -0.3251140062
C -3.7790696574 2.4900746346 -1.5975181767
H 1.4894073347 -0.3219381655 3.2934987340
H 1.3577530811 0.5507017717 1.8266320100
H 2.7506629421 -4.6515182135 3.4218390428
H 3.0752648735 -5.5354747096 1.9954846573
H 2.5990649110 -2.6624641421 -1.4107537219
H 2.2435612426 -0.3568716148 -1.6283014981
H 2.7149513076 0.6459030411 -0.2630177431
H -0.3479746936 -1.4262834711 -0.8696185447
H -2.2320340210 -2.1491937384 -1.9824354249
H -2.2990954021 -2.4548721950 -0.2168705542
H -3.8102670534 -2.3442911207 -1.1655314470
H 1.2939893384 2.4629985820 -0.1585543219
H 0.6135996914 4.5885878798 -0.7207260231
H 0.5449101932 4.2861489052 1.0456973172
H -0.4743727765 5.5587830121 0.3135230476
H -3.8263028877 1.6490902722 -2.2988730570
H -3.1570619563 3.2890107338 -2.0178126404
H -4.7852133935 2.8677997219 -1.4055213736
