47
CONF301
C 0.3231082097 2.0688061093 1.1817257930
C -0.5645680046 0.9098210742 1.6328900883
C -1.9268312000 1.3529855913 2.1790743561
C -2.7685856870 2.1292440633 1.1898646229
O -3.0346706275 1.2443585530 0.0533179340
C -3.4125930485 1.8217665856 -1.0848387672
O -3.6089448714 3.0110876350 -1.2397192476
C -3.6372722933 0.8157878802 -2.2135969099
C -5.1290396887 0.5505700323 -2.3628182096
O -3.0160666886 -0.4497661989 -1.9794223258
C -1.6498752902 -0.5146164469 -1.9494677918
C -0.7969338129 0.5670982797 -2.1758095527
C 0.5827905442 0.3804922371 -2.0996215622
C 1.0904895339 -0.8740215477 -1.8112784787
C 0.2505553202 -1.9626772978 -1.6013661359
C -1.1217269039 -1.7790205130 -1.6652087200
O 2.4800076370 -1.0522705762 -1.8123444510
C 3.1231610353 -1.2018207050 -0.6219095383
C 2.4762290697 -1.1004468337 0.6164941506
C 3.2440770315 -1.2552960357 1.7534582309
C 4.6126516269 -1.5035480246 1.6236642175
C 5.1545103809 -1.5863114517 0.3465319373
N 4.4238927492 -1.4372193809 -0.7615852236
C 5.4495759114 -1.6961911947 2.8439047271
F 5.1418727709 -2.8522104121 3.4965272053
F 5.2670299464 -0.6974239962 3.7482648998
F 6.7715752984 -1.7443071441 2.5668463550
H 1.3155869614 1.7090987478 0.8920982301
H -0.0993522759 2.5853155830 0.3136435872
H 0.4496690551 2.8032519809 1.9853854656
H -0.7181859479 0.2193989194 0.7938863033
H -0.0524430176 0.3402156459 2.4179344029
H -2.4931139214 0.4807492892 2.5261907135
H -1.7812342946 2.0057496532 3.0496822711
H -2.2593411235 3.0222034920 0.8193316572
H -3.7324637566 2.4244120423 1.6161409318
H -3.2440830140 1.2704137166 -3.1321202044
H -5.2950238407 -0.1279015742 -3.2027763893
H -5.6523923995 1.4893102262 -2.5567756102
H -5.5274437938 0.0986023661 -1.4501169169
H -1.1747625372 1.5573605129 -2.4012326835
H 1.2588652212 1.2131042740 -2.2627591350
H 0.6697534070 -2.9401612330 -1.3849169175
H -1.8002830957 -2.6088164804 -1.4979598660
H 1.4140661630 -0.9059934176 0.6841463250
H 2.7831829193 -1.1803009989 2.7334950010
H 6.2145793371 -1.7780831111 0.2031445268
