48
CONF25
C -3.4698304602 0.7917785763 -2.9788903073
O -4.2549440068 1.1059678391 -1.8196021581
C -3.8388078166 0.6000375501 -0.6277118689
C -4.6579052897 0.9411318682 0.4771584189
C -4.3479928705 0.4794865320 1.7265842912
C -3.2078116048 -0.3356489712 1.9439036607
N -2.9669007563 -0.7607160278 3.2154568416
C -1.9060491760 -1.5218652713 3.4117432610
C -1.0178105486 -1.8957481023 2.3881884041
C -1.2209508915 -1.4698067907 1.0925825183
C -0.1968931931 -1.8430051538 0.0423459174
O -0.7829089367 -2.4166287503 -1.1376706513
C 0.6364275626 -0.6456576197 -0.4416098510
C 1.7256661107 -1.0748750043 -1.4578457510
C 2.9601460018 -0.1957659852 -1.2126214534
C 3.5801621542 -0.5974443467 0.1304521846
C 2.4406239387 -0.6103518445 1.1841796191
N 1.2377873818 0.0962169561 0.6856266211
C 1.6684592693 1.4177191286 0.1801245840
C 2.4961196283 1.2812492774 -1.1252246571
C 3.6380720803 2.2401261367 -1.2847748428
C 3.9949193948 3.2393492721 -0.4777009280
C -2.3718311175 -0.6687536279 0.8289973624
C -2.7209178149 -0.1909191189 -0.4599996499
H -3.4486488891 -0.2900744159 -3.1545928580
H -3.9618626697 1.2916855208 -3.8132473949
H -2.4459391527 1.1688362154 -2.8710291985
H -5.5304282539 1.5637333271 0.3063308539
H -4.9706919631 0.7260001050 2.5807647608
H -1.7272101517 -1.8632157484 4.4307244363
H -0.1582315678 -2.5137246019 2.6309837583
H 0.4822693148 -2.5789100078 0.4974061987
H -1.2597631252 -3.2125555550 -0.8694024014
H -0.0540028876 0.0539552911 -0.9277675243
H 1.3582834341 -0.9625184045 -2.4827461842
H 1.9915981125 -2.1305446436 -1.3164770195
H 3.6835653107 -0.3136879153 -2.0265521175
H 4.3632558668 0.1171796730 0.4086633830
H 4.0472416029 -1.5851621698 0.0528196789
H 2.7573274446 -0.1221096070 2.1126388258
H 2.1575708290 -1.6359774609 1.4408863527
H 2.2638520536 1.8810344804 0.9740632047
H 0.7850137248 2.0461048794 0.0162268592
H 1.8329571533 1.4491781520 -1.9886186831
H 4.2222925774 2.0813623062 -2.1936702955
H 4.8449955411 3.8694851233 -0.7224437341
H 3.4645527094 3.4745156305 0.4404310096
H -2.1148275191 -0.4804671936 -1.3046435801
