46
CONF3
C -3.8823534866 -0.7818818851 -1.6727254354
C -2.6019006384 -0.2444075135 -2.2684679754
C -2.7746272583 0.3473614185 -3.6495507408
C -1.3194260834 -0.9658320019 -1.9179527911
C -0.2365127334 -1.1620572012 -2.8838141029
C 0.4164601936 -2.3077430803 -3.0799895254
Cl 1.7137394272 -2.4528029116 -4.2388764960
Cl 0.0744836472 -3.7838490421 -2.2216333860
C -1.5719416554 0.4404331064 -1.3740998796
C -1.7829617491 0.5958437843 0.0785237390
O -2.0945892856 -0.2868494100 0.8553677517
O -1.5729953409 1.8853762989 0.4404979029
C -1.6788932309 2.2131878633 1.8571111430
C -0.3089256613 2.3133563325 2.4683768209
C 0.5891135888 1.2536327797 2.3316521636
C 1.8608876579 1.3575972303 2.8834075254
O 2.7796640619 0.3289870043 2.8071064920
C 2.8006638284 -0.4756629532 1.6774118665
C 2.9774613135 -1.8400972536 1.8790681046
C 3.0918642625 -2.6804557138 0.7742346706
C 3.0212670068 -2.1622249188 -0.5164725908
C 2.8399752132 -0.7922644215 -0.7009535172
C 2.7339703674 0.0614733055 0.3929064866
C 2.2422311836 2.4868339781 3.6053562242
C 1.3334498383 3.5276086984 3.7563928389
C 0.0667421464 3.4534360370 3.1795091064
H -4.3059558890 -1.5336318936 -2.3472222711
H -4.6156147988 0.0249675555 -1.5622584993
H -3.7204272638 -1.2420574357 -0.6971298910
H -3.5499806819 1.1200982111 -3.6249011979
H -1.8575144528 0.8003478435 -4.0315652920
H -3.0944362484 -0.4311676791 -4.3510396100
H -1.4415575950 -1.7466719042 -1.1734299988
H 0.0761704323 -0.3188006849 -3.4924516298
H -1.0261718370 1.2530990268 -1.8420247485
H -2.1936142474 3.1748748805 1.8973110722
H -2.2862642123 1.4500721587 2.3517870011
H 0.3042952120 0.3553219972 1.7949812175
H 3.0275669646 -2.2272002166 2.8914009749
H 3.2319895324 -3.7459947835 0.9271100800
H 3.1081479543 -2.8207462327 -1.3740174082
H 2.7884823937 -0.3814640671 -1.7046166386
H 2.6032697015 1.1295573758 0.2541286231
H 3.2385593093 2.5377798873 4.0313608972
H 1.6244064547 4.4139601849 4.3111732554
H -0.6281969606 4.2815982433 3.2790174828
