47
CONF75
C -0.3099506510 0.9254371941 2.9069915082
C -0.8740089646 1.4865899668 1.6219264257
C -2.2746337481 2.0561916304 1.5852865797
C -2.0090288450 0.6775785676 0.9862324791
C -2.0605982580 0.5149223397 -0.4721634041
O -2.0908821798 1.3843386417 -1.3150771501
O -2.0264390664 -0.8202796799 -0.7877815129
C -1.8802130087 -1.0967563328 -2.1955559404
C -2.2044931916 -2.5160568817 -2.3496447383
N -2.4345360717 -3.6360090893 -2.5112525736
C -0.4721121998 -0.8170395059 -2.6970169279
C -0.2816395091 -0.4748860927 -4.0320866714
C 1.0119084483 -0.2337149027 -4.4910701901
C 2.0981815007 -0.3284593916 -3.6314032514
C 1.8862997990 -0.6685758921 -2.2945151193
C 0.6027094883 -0.9224305966 -1.8172614247
O 3.0052820922 -0.6896941905 -1.4947991005
C 2.9268026675 -1.2687790800 -0.2313042286
C 2.6516500302 -2.6255904604 -0.0896978751
C 2.6482353936 -3.1805103253 1.1866395607
C 2.9266875825 -2.3897448821 2.3012580857
C 3.2132916871 -1.0368096014 2.1373713916
C 3.2117314700 -0.4663746350 0.8657591447
C -3.1152508937 2.1457515118 2.7811298329
C -3.9393989539 3.1535451064 3.0682757591
Cl -4.9059310546 3.1800877920 4.5216386231
Cl -4.1620487484 4.5549201370 2.0562549501
C 0.1634617864 2.1420526945 0.7398334268
H 0.5090861647 0.2362569442 2.6746082316
H -1.0528302487 0.3821824129 3.4941223847
H 0.0947722728 1.7375122855 3.5211806702
H -2.4176132033 2.8342558765 0.8416129296
H -2.3284079291 -0.1878343604 1.5570054642
H -2.6056195535 -0.5120607573 -2.7745297578
H -1.1306639905 -0.3907101422 -4.7030470176
H 1.1746184745 0.0378153131 -5.5290121987
H 3.1082051478 -0.1338855320 -3.9761427482
H 0.4398125821 -1.1806020974 -0.7774639854
H 2.4431138928 -3.2315873077 -0.9657228812
H 2.4345147640 -4.2377323821 1.3082707695
H 2.9247191386 -2.8290414766 3.2933931084
H 3.4350696963 -0.4169740171 3.0004366457
H 3.4296871582 0.5861244982 0.7178473546
H -3.0778002719 1.3338537685 3.5012794884
H 0.6766539752 2.9243177882 1.3089222502
H -0.2739303182 2.5941642343 -0.1517822432
H 0.9115362552 1.4042412113 0.4280996768
