47
CONF16
C 3.2481159755 -4.2028888472 -1.6665320764
C 3.5974322168 -2.8516086784 -1.1852582512
C 2.8757101506 -1.7070898026 -0.9540227742
C 3.8478862194 -0.7665002734 -0.4797547117
N 5.0488790672 -1.3025776865 -0.4387481227
O 4.8857757857 -2.6320485262 -0.8726257220
C 3.6846600263 0.6445468506 -0.0967408691
C 4.2852568240 1.1248815091 1.0726541371
C 4.1491277276 2.4632556252 1.4257620019
C 3.4158084953 3.3294224469 0.6177408167
C 2.8199052247 2.8555375157 -0.5495393922
C 2.9517112241 1.5189983351 -0.9084229894
C 1.4145724046 -1.6023952665 -1.1247155215
O 0.8072073414 -2.2864444074 -1.9500930607
N 0.7855486193 -0.7205592761 -0.2926207278
C -0.6089348952 -0.4416239051 -0.3909051744
C -1.5491548867 -0.7167221949 0.8329102226
N -1.8662908333 0.7184025568 0.8515413869
C -1.0717298098 1.0275849338 -0.2459771634
O -0.8749975345 2.0654874677 -0.8328823159
C -3.2333703754 1.1113634679 1.1093925573
C -4.1348532197 0.0134210081 0.4293047357
S -3.1596360748 -1.5821605826 0.6126100406
C -5.4945732535 -0.1600477919 1.0970606682
C -4.3039243246 0.3577682692 -1.0509075385
C -3.5323773898 1.2890947101 2.5898110407
O -4.3453954809 2.0820082282 3.0101074474
O -2.8185100649 0.4577504785 3.3651849507
H 2.2024232698 -4.4188349969 -1.4455668505
H 3.8962819442 -4.9489673855 -1.2010596837
H 3.3801111020 -4.2589618627 -2.7529841875
H 4.8454354351 0.4432082174 1.7039187529
H 4.6125572203 2.8288981230 2.3364901424
H 3.3076973914 4.3726003730 0.8972152419
H 2.2525226915 3.5281687574 -1.1844897578
H 2.4963195965 1.1538149009 -1.8237207710
H 1.3274868261 -0.2269910145 0.4025796521
H -1.0047228157 -0.8829461300 -1.3103469931
H -1.0446931112 -1.0888738631 1.7279496628
H -3.4312392695 2.0755065305 0.6311090778
H -5.4044112775 -0.4458112069 2.1482044623
H -6.0665620050 -0.9336441665 0.5774211522
H -6.0545243823 0.7784688549 1.0316619103
H -3.3423179197 0.5077977544 -1.5496218356
H -4.8278343649 -0.4528825928 -1.5634949012
H -4.8956631580 1.2751251698 -1.1489649530
H -3.0727170362 0.6074685587 4.2927914845
