33
CONF118
C 4.8099162609 0.7008606736 -1.1565646608
C 5.7489069447 1.8323665567 -1.5876260991
O 6.1545801614 2.6789852732 -0.5111449292
C 3.4057362562 1.1690219179 -0.8561569145
C 2.4206293546 -0.0014589652 -0.5481764743
C 1.0379839419 0.4257375884 0.0565787247
C -0.0653751590 -0.6852274149 -0.0767667850
C -1.2764489089 -0.4710044055 0.9014019458
C -2.5568674750 -1.2673273437 0.4832816078
C -3.6642576380 -1.4542557185 1.5851248557
C -4.2263641675 -0.1723313192 2.2735016962
F -5.2855645263 -0.5139496039 3.0177184924
F -3.3029565943 0.3784150628 3.0717676181
F -4.6107463295 0.7264146975 1.3586274397
F -3.1971597568 -2.2752837705 2.5488767828
F -4.7017195454 -2.0629127741 0.9621576399
F -3.1270598721 -0.6533290724 -0.5749484281
F -2.1851981385 -2.5186439795 0.1180432556
F -1.5950936246 0.8453316335 0.9273946530
F -0.9008259032 -0.8619617870 2.1387132089
F -0.5255063370 -0.6842633798 -1.3483569421
F 0.4879778231 -1.8891383381 0.1923129601
F 0.5953211179 1.5372828604 -0.5721073144
F 1.2115751437 0.7046877925 1.3705787272
F 2.2000503749 -0.6777609580 -1.7063417205
F 3.0156304019 -0.8425635590 0.3342464401
F 3.3812279247 2.0166096423 0.2282036779
F 2.8939940381 1.8693194403 -1.9157734433
H 4.7452970605 -0.0355140407 -1.9658243691
H 5.2121819096 0.1994267149 -0.2723833255
H 5.3018583193 2.4139060329 -2.4037646283
H 6.6632048215 1.3693866847 -1.9683602531
H 5.4166606559 3.2551528907 -0.2792680531
