45
CONF32
C 2.9458854763 -1.7810386203 4.2716200632
N 2.7927583553 -1.2630680087 2.9125321574
C 3.6164591781 -2.0462547708 1.9915684672
C 1.3783779890 -1.2920651979 2.5284479439
C 1.0960723693 -0.6028449232 1.1961192351
C -0.4114772477 -0.4623272524 0.9805152585
N -0.7320200715 0.1557046611 -0.3103960112
C -0.3409638927 1.4998040889 -0.5430984510
C -0.0677851645 2.3267379826 0.5627814682
C 0.3265385781 3.6482594797 0.4141776789
C 0.4499116456 4.1942461338 -0.8581986874
C 0.1834490580 3.3864091275 -1.9546640067
C -0.2005864021 2.0453694912 -1.8408528921
C -0.4084328021 1.3147617944 -3.1544997051
C -0.5795647690 -0.2039755796 -3.0905807135
C -1.8310178771 -0.5681476124 -2.3567107318
C -2.9525331805 -1.0876394420 -3.0026293223
C -4.1052588042 -1.4146411741 -2.2934183225
C -4.1441606802 -1.2133158282 -0.9164253285
C -3.0405465493 -0.6787102094 -0.2589283168
C -1.8838018028 -0.3506886774 -0.9730351944
H 3.9972429220 -1.7250660318 4.5724653075
H 2.6172571149 -2.8350709183 4.3676758935
H 2.3571292300 -1.1756845143 4.9689754309
H 3.2909788518 -3.1039883636 1.9272403823
H 3.5880135743 -1.6161272087 0.9868390117
H 4.6566912049 -2.0307157003 2.3321515829
H 0.9943430736 -2.3343504988 2.4944386291
H 0.8158657094 -0.7745891575 3.3174595364
H 1.5857658142 0.3766601057 1.1890512863
H 1.5029758988 -1.1778239846 0.3573372094
H -0.8530088916 -1.4635356586 0.9591301436
H -0.8731956911 0.0610853684 1.8343666199
H -0.1740697618 1.9324749841 1.5655055304
H 0.5268476597 4.2476990131 1.2968949728
H 0.7555566820 5.2259989471 -0.9965262891
H 0.2909886697 3.7976419274 -2.9558860117
H -1.2923137798 1.7364115016 -3.6525150892
H 0.4455270889 1.5525476566 -3.8005451794
H 0.2880366559 -0.6509016194 -2.5898298186
H -0.6189622613 -0.5984550292 -4.1106339023
H -2.9097301339 -1.2560801373 -4.0756500728
H -4.9644318355 -1.8288070418 -2.8111898905
H -5.0379450238 -1.4602928792 -0.3519159266
H -3.0808665001 -0.5056056204 0.8116965619
