54
CONF54
C -3.2999200904 -3.5945065378 -0.9419249079
C -2.5441154341 -3.6658544143 0.3877438084
C -3.4816859150 -3.9862161823 1.5519916633
C -1.7174803875 -2.3931002819 0.6729284377
C -0.6342289902 -2.2201043682 -0.4053972072
O 0.2664990213 -3.0544940590 -0.5147688011
N -0.7445244968 -1.1390971114 -1.2015573573
C 0.2726910111 -0.7826658956 -2.1781683506
C -0.2836436887 0.3301661159 -3.0985329538
C -0.5885597649 1.5762894033 -2.3048619441
O -1.4833434473 1.6534116792 -1.4793437721
O 0.2542956227 2.5786049454 -2.5794723782
C 0.0654317432 3.7881683051 -1.7970288682
C 1.5815056934 -0.3403446333 -1.5434462426
C 1.6208389815 0.2585107049 -0.2847005975
C 2.8216696226 0.7246838716 0.2440823137
C 3.9829665821 0.5843154827 -0.5039607094
C 3.9748802433 -0.0134274008 -1.7586942271
C 2.7657276171 -0.4721706837 -2.2697014083
Cl 5.5079576148 1.1694893185 0.1570924683
N -2.5692318006 -1.2296494043 0.8461552904
C -2.1386879797 -0.1243938902 1.5109308377
O -1.0291016949 -0.0129575416 2.0176259389
O -3.0967646263 0.8309510248 1.5178805188
C -2.7500719458 2.1043764475 2.1601489057
C -3.6140636332 3.1506635243 1.4861611306
C -2.9963786590 1.9951260422 3.6534626879
H -3.8046948658 -4.5464530622 -1.1316037055
H -4.0713540345 -2.8157895748 -0.9348288203
H -2.6246922227 -3.3972064262 -1.7808785635
H -1.8001700945 -4.4671136581 0.3130054315
H -3.9691499869 -4.9515316004 1.3843169107
H -2.9333493507 -4.0384519948 2.4981831356
H -1.1616284729 -2.5515266469 1.6051768311
H -1.4682824853 -0.4587355156 -1.0085216766
H 0.4736467962 -1.6562189326 -2.8092859267
H 0.4493752977 0.5416984516 -3.8780965394
H -1.2129252548 -0.0193443192 -3.5599206581
H 0.1904556910 3.5648375817 -0.7347625962
H -0.9304377437 4.1987825768 -1.9773393965
H 0.8363473820 4.4754357875 -2.1415937252
H 0.7147007521 0.3532425578 0.3064176367
H 2.8496106268 1.1851645308 1.2252824458
H 4.8934794921 -0.1237621911 -2.3237031417
H 2.7494716640 -0.9436517197 -3.2488048501
H -1.6909789872 2.2943095676 1.9596445592
H -3.3918495271 4.1331091316 1.9125774125
H -4.6753340144 2.9360956533 1.6471217573
H -3.4163648702 3.1845299511 0.4113553802
H -4.0519442905 1.7795841583 3.8483902381
H -2.7409879438 2.9428510149 4.1373851993
H -2.3823795870 1.2057563316 4.0942842955
H -4.2678220726 -3.2303809977 1.6548597104
H -3.4930390222 -1.2115800608 0.4413788131
