78
CONF225
C -0.8591007117 -0.0046860757 -0.6848202206
C -0.3083754585 1.2061062652 -1.4290245484
O -0.8875050875 1.0919489866 -2.7648985521
C -1.2399297815 -0.2001009515 -3.0248020440
O -1.6608476918 -0.5430687644 -4.0987249167
C -0.9395168720 -1.0351551250 -1.7970064863
C -1.8669223628 -2.1873552098 -1.4035178527
C -3.3319419264 -1.7719366225 -1.3096681204
C -4.0712884928 -1.6373128607 -2.4857209418
C -5.3876276779 -1.1950443015 -2.4200552330
O -6.2082011756 -1.0003000598 -3.5020169724
C -5.6216237845 -1.1508860816 -4.7956826906
C -5.9961570388 -0.9044662243 -1.1942819265
O -7.2876615979 -0.4782271824 -1.1276277187
C -5.2590119477 -1.0638543531 -0.0170299255
O -5.9288434939 -0.7732607046 1.1349376836
C -5.2184635955 -0.9391601522 2.3551756561
C -3.9306676170 -1.4901586110 -0.0806016663
C -1.3463291427 -2.7496074410 -0.0895894935
C -1.7224617516 -4.0681480909 0.2383042937
C -1.2891705190 -4.5817453444 1.4332911852
C -0.5131991455 -3.8341287549 2.3137186312
O -0.2582938079 -4.5685684020 3.4463144306
C -0.6968119400 -5.8998578140 3.1311438682
O -1.5501954454 -5.8139446771 1.9765696640
C -0.1469359950 -2.5456620833 2.0300327575
C -0.5732813579 -1.9929655367 0.8024842480
C -0.1064204187 -0.5781420930 0.5021795662
O 1.3196545776 -0.6234709224 0.2224830131
C 2.1026660739 0.1607532950 1.0458855673
O 1.9083258342 1.5404887855 0.6762053339
C 2.7015014609 2.4117383461 1.4708173837
C 2.4232968000 3.8550248496 1.0920452464
O 3.3099589946 4.6944833277 1.8500474208
C 4.6807556101 4.3875887937 1.6827565435
O 4.9816650889 3.0242007980 1.9773507986
C 4.1737512544 2.1277488263 1.2023989429
C 4.4891838287 0.7064924300 1.6078333455
O 5.8215864605 0.3168069838 1.2829145955
C 3.5628478404 -0.2512455761 0.8587629639
O 3.6973225818 -1.5720934890 1.3574566744
C 5.1800413380 4.7889790599 0.3180199988
C 4.6879026326 5.7607615564 -0.5112708782
C 5.4709386517 5.9441463746 -1.6815777117
C 6.5593116564 5.1184373412 -1.7252531313
S 6.6393471010 4.0968200204 -0.3299312158
H -1.8839545814 0.2148431086 -0.3548343566
H 0.7801081048 1.1742463809 -1.5192333117
H -0.6181180409 2.1700655119 -1.0213551276
H 0.0684515323 -1.4492203310 -1.9668277070
H -1.7902651096 -2.9702376054 -2.1679102616
H -3.6015407995 -1.8484263123 -3.4368504916
H -6.3980379398 -0.8734846210 -5.5096776768
H -5.3186270270 -2.1906951003 -4.9702422152
H -4.7525344731 -0.4924672601 -4.9119905375
H -7.6104062636 -0.4263142638 -2.0380448143
H -5.9208476391 -0.6714826048 3.1458653631
H -4.8921247721 -1.9788604258 2.4923014451
H -4.3442635030 -0.2754431279 2.4048492905
H -3.3585576878 -1.6252135008 0.8282871254
H -2.3447449254 -4.6477166013 -0.4349882318
H -1.2661710052 -6.3037523057 3.9725497546
H 0.1773866021 -6.5236044006 2.8895652547
H 0.4660670892 -1.9749075874 2.7185420909
H -0.2593943156 0.0524770407 1.3889439151
H 1.8202104199 0.0429112525 2.1114329142
H 2.4914742262 2.2688858888 2.5452482479
H 1.4104739894 4.1632087200 1.3623082388
H 2.5686295488 3.9875603869 0.0103445285
H 5.1921451559 4.9581101782 2.4655604765
H 4.3752665148 2.2599411652 0.1272688925
H 4.3100939291 0.5969773031 2.6914374720
H 6.4212931272 0.9153577325 1.7443059116
H 3.7932684314 -0.2024046514 -0.2182121242
H 4.6414290854 -1.7747325461 1.3530769194
H 3.7930758399 6.3252463630 -0.2784178091
H 5.2350818310 6.6577128373 -2.4615684599
H 7.3118609085 5.0409188285 -2.4977623614
