44
CONF1
C 2.3839099048 2.8416796658 -0.2315812024
C 2.2328991024 1.3268404771 -0.1635514597
C 3.3500768305 0.6628274749 0.6685820251
S 2.6697530097 0.6168157991 2.3949134602
C 0.9762431184 0.6937764755 1.8112130617
O 0.0208561878 0.5201352476 2.5529602155
N 0.9448773703 0.9594767773 0.4597749405
C -0.2267580032 0.9923950972 -0.3683325410
O -0.0900368575 1.1908102895 -1.5742598878
N -1.4013643248 0.8088761796 0.2559564958
C -2.6572064687 0.6830648447 -0.4864396058
C -3.8161984678 1.1315351286 0.4038133752
C -5.1510590492 0.9928477617 -0.3326715528
C -5.3647315661 -0.4368554975 -0.8348849265
C -4.2007117777 -0.8829299203 -1.7222872902
C -2.8675565791 -0.7527427728 -0.9820017168
C 3.7771224286 -0.7048953307 0.2096815647
C 5.1367488540 -1.0190415982 0.1710272152
C 5.5739479866 -2.2737490242 -0.2439455771
C 4.6275947975 -3.2151265586 -0.6250504859
C 3.2659111926 -2.9334868781 -0.6004312653
C 2.8490551382 -1.6768120600 -0.1788368443
Cl 5.1633538729 -4.8054966224 -1.1570555247
H 1.5436406187 3.2784418820 -0.7764422176
H 2.4177778416 3.2735043740 0.7738857271
H 3.3092768140 3.0956785740 -0.7562819054
H 2.2475116406 0.9030730440 -1.1701269065
H 4.2180476491 1.3257039124 0.6897342678
H -1.3880579723 0.5971319984 1.2477091031
H -2.5921683231 1.3510775210 -1.3541013253
H -3.6560926531 2.1680016522 0.7225666976
H -3.8303059157 0.5070816026 1.3090110949
H -5.1639686316 1.6826323754 -1.1879865375
H -5.9699155894 1.2928596282 0.3306913765
H -6.3105303452 -0.5070004968 -1.3843727658
H -5.4415882930 -1.1146119546 0.0268776239
H -4.3431242710 -1.9182095529 -2.0519446180
H -4.1752387500 -0.2600990983 -2.6275007989
H -2.0316831091 -1.0414164005 -1.6296379002
H -2.8595161535 -1.4249869698 -0.1126090854
H 5.8704294688 -0.2749068491 0.4670144532
H 6.6317627831 -2.5090513783 -0.2727588299
H 2.5422644627 -3.6810730301 -0.9046777590
H 1.7847524360 -1.4637753982 -0.1571654800
