45
CONF10
C -3.4206130151 -0.2291694242 1.1744975187
C -3.0300310971 0.5655292089 -0.0369266533
N -3.7296099726 0.5999072163 -1.1154713870
O -4.8675549370 -0.2077110160 -1.0053767055
C -5.5890788110 -0.1487109642 -2.2372731525
C -1.8460722845 1.4561688496 -0.0311368052
C -0.6100778767 1.0485478265 0.5061195992
C 0.4429789112 1.9714288504 0.5538398862
C 0.2917240045 3.2642244919 0.0760819251
C -0.9283050165 3.6552748749 -0.4604334886
C -1.9888372796 2.7624895650 -0.5106764329
O 1.6653129906 1.6759126847 1.1325148788
C 2.4064245985 0.6375477724 0.6564837673
N 3.4441826463 0.3361816911 1.4214145180
C 4.1785814018 -0.6881847195 0.9820188412
C 3.8956436374 -1.3962042095 -0.1848914019
C 2.7884020151 -0.9455076954 -0.8924748773
N 2.0343492713 0.0823181431 -0.4884039380
O 2.4682369740 -1.5776740248 -2.0326581302
C 1.3382891730 -1.0625198164 -2.7689903875
O 5.2494425421 -1.0752970704 1.6914978191
C 5.5196826396 -0.3561950278 2.9109886780
C -0.3760586816 -0.3423356609 0.9838932024
O 0.1661981586 -0.6422890500 2.0227386701
O -0.8404582316 -1.2481785820 0.0920273037
C -0.6162724933 -2.6231207000 0.4675955279
H -2.7020571682 -0.1102724291 1.9864868879
H -3.5249354925 -1.2891939875 0.9260725649
H -4.4019933776 0.1118722929 1.5220438252
H -4.9805056462 -0.5296477102 -3.0650789820
H -6.4641390256 -0.7862694882 -2.0931929879
H -5.9057348840 0.8773198277 -2.4562335776
H 1.1362021471 3.9414506003 0.1322943317
H -1.0540596118 4.6675003058 -0.8303194501
H -2.9517167511 3.0656153104 -0.9037572220
H 4.4994239765 -2.2280852689 -0.5184346510
H 0.4311245311 -1.0853769065 -2.1598104398
H 1.2444675069 -1.7221158318 -3.6319827381
H 1.5268521005 -0.0349019142 -3.0918987407
H 5.7164141299 0.6987793056 2.7029799666
H 6.4045229226 -0.8369500534 3.3286838560
H 4.6748492877 -0.4337014746 3.6001609723
H -1.0548947669 -3.2179240677 -0.3335397835
H -1.0971729568 -2.8421353262 1.4248388340
H 0.4568727953 -2.8175360224 0.5536886692
