33
CONF249
C -3.9752705038 -2.5661245042 0.4987892037
C -3.0767865731 -1.3780884101 0.8438326959
C -1.6112612747 -1.7837465762 0.8061427005
S -0.4607028043 -0.3911921627 1.2486960160
P -0.2670524829 0.4826948280 -0.6465842911
O -1.4020654421 0.2666208474 -1.5674386614
O 0.1557549351 1.9944181374 -0.3029315709
C -0.8808390291 2.9275248254 0.1417671809
C -1.5150329731 3.6212746203 -1.0427864644
O 1.1216082171 -0.0535639943 -1.3123319909
C 2.2843731098 -0.2259352315 -0.5918973597
C 3.0802328967 0.8627122743 -0.2553440704
C 4.2793693124 0.6782444572 0.4212924716
C 4.6711702593 -0.6124358143 0.7528755806
C 3.8998068524 -1.7178669644 0.4209723115
C 2.7012945221 -1.5156735125 -0.2540307874
Cl 1.7216529759 -2.8883157623 -0.6828330754
Br 6.3154498897 -0.8839367214 1.6840121618
H -3.8324030730 -3.3932198316 1.2027434705
H -5.0296254600 -2.2774505996 0.5310557380
H -3.7610156301 -2.9381189510 -0.5082709475
H -3.2350470669 -0.5668885316 0.1265758876
H -3.3229845202 -0.9915147553 1.8395497112
H -1.3243738734 -2.1591769615 -0.1798677431
H -1.3877278065 -2.5639654319 1.5419775312
H -1.6208449884 2.3842049521 0.7417041369
H -0.3563670859 3.6293323308 0.7955600254
H -0.7585420816 4.1451278977 -1.6331816003
H -2.0262116880 2.8986465007 -1.6833100981
H -2.2451408367 4.3549079176 -0.6855343859
H 2.7449273129 1.8551183931 -0.5320909287
H 4.8991031461 1.5269473552 0.6824847451
H 4.2145497745 -2.7205604198 0.6798298185
