94
CONF6
C 10.1172343976 -0.3021257239 -3.1414896501
C 8.9848832777 -0.6420526322 -2.1919152629
C 8.2128698763 -1.8963844139 -2.6165969213
C 7.0900835086 -2.2096454967 -1.6826887159
C 5.8068177833 -1.8825747619 -1.9301830659
C 4.7235020430 -2.0701738847 -1.0073494869
C 3.4643425699 -1.6072636560 -1.2255045747
C 2.3822113856 -1.7642546071 -0.3042910241
C 1.1417102049 -1.2438789095 -0.4945912307
C 0.0497260763 -1.4273671537 0.4202740623
C -1.1671924524 -0.8772657051 0.2555274249
C -2.2973660720 -1.0621013874 1.2117961083
C -2.5854155318 0.1687822069 2.0815235660
C -2.8108939389 1.4513207628 1.2908998700
C -3.7229010343 2.4538218191 2.0306418723
C -3.8193177114 3.7344822817 1.2021582134
C -2.4221456512 4.2804270678 0.9447439253
C -1.5286500469 3.2326238130 0.2786534429
O -1.5228555386 2.0379950881 1.0779227390
C -0.0700962961 3.6881294655 0.2212578952
C 0.8927715916 2.6792904008 -0.4035814044
C 2.3328780063 3.1818337805 -0.3105210834
C 3.3080216383 2.3001863922 -1.0390827931
C 4.5998214384 2.8515135191 -1.5004863303
O 3.5170664711 2.5812377023 -2.4331091116
C 5.7730426004 1.9892499306 -1.6459979965
C 7.0163411547 2.3789505826 -1.3319264011
C 8.1835968373 1.4829193323 -1.3843857613
O 9.2052001119 1.6777696415 -0.7433911895
O 7.9908041892 0.4332612897 -2.2006452278
O 0.5302112200 2.3837357570 -1.7752096162
O -2.0578433238 2.9763154118 -1.0096885221
O -4.6218104359 4.6556359106 1.9544068320
C -5.0978171595 1.8600929504 2.2002473347
O -5.7956897967 1.4790774252 1.2804274935
O -5.4735603603 1.7743256656 3.4914145700
O -3.4555002419 -1.3751134790 0.3814118127
C -4.5346202666 -1.9720665897 1.0356479223
C -5.6988630618 -2.0209125315 0.0448920472
C -6.8601339072 -2.7852864255 0.6872339797
C -6.3841652769 -4.1407467290 1.2186935610
C -5.1926460533 -3.9591725045 2.1589490608
O -4.1438686292 -3.2830021939 1.4409595044
C -4.6236883499 -5.2693853183 2.6581965639
O -7.4381050212 -4.7771545802 1.9455275289
N -8.0205873341 -3.0009854302 -0.1833815203
O -5.3326044966 -2.6890006477 -1.1621237248
H 10.8462939513 -1.1179467465 -3.1446760016
H 10.6228744719 0.6148516400 -2.8303983020
H 9.7340922534 -0.1733614000 -4.1586080393
H 9.3531314364 -0.7466529795 -1.1658452431
H 8.9355923089 -2.7203870379 -2.6502032501
H 7.8340296449 -1.7382244376 -3.6332692537
H 7.3489753270 -2.6619148564 -0.7247797235
H 5.5621670583 -1.4112059383 -2.8836319588
H 4.9421195650 -2.5886495528 -0.0731584940
H 3.2568907256 -1.0711322897 -2.1531114799
H 2.5782002569 -2.3362499809 0.6035508201
H 0.9471414103 -0.6555746777 -1.3921697613
H 0.2360167360 -2.0518658822 1.2952795410
H -1.3646047280 -0.2435246233 -0.6084921059
H -2.0885917080 -1.9136451211 1.8702274305
H -3.4593080432 -0.0484426234 2.7058815296
H -1.7474138716 0.3178162590 2.7714987970
H -3.2794274601 1.2209937001 0.3242914107
H -3.2906768458 2.6853624710 3.0107656527
H -4.3154752266 3.4961379777 0.2510346689
H -1.9729164305 4.5673049287 1.9018944956
H -2.4756063061 5.1674100521 0.3046433449
H -0.0279012440 4.6277167940 -0.3437307925
H 0.2620609685 3.9019729221 1.2429717841
H 0.8092293754 1.7151550485 0.1103717770
H 2.6170582683 3.2253013006 0.7482715985
H 2.4017330646 4.2009128440 -0.7130615484
H 3.2674521826 1.2329834795 -0.8083840417
H 4.7828180051 3.9110986298 -1.3197630395
H 5.5854257709 0.9795479624 -2.0049323299
H 7.2136425666 3.3712665361 -0.9353587337
H 0.7552359824 3.1561829659 -2.3148856684
H -1.3349994897 2.5740661979 -1.5281576090
H -4.7560098364 5.4427156528 1.4102576514
H -6.3605405821 1.3738194392 3.5238475703
H -4.8503570707 -1.4017578781 1.9295252326
H -6.0117299437 -0.9857778122 -0.1643416155
H -7.1940302441 -2.1959701573 1.5535280307
H -6.0655989554 -4.7753026777 0.3747094352
H -5.5127988909 -3.3327086648 3.0101539905
H -4.3070747411 -5.8907040233 1.8138823667
H -3.7614893215 -5.0855356166 3.3053493192
H -5.3790506344 -5.8134379544 3.2299467087
H -8.2408220178 -4.6014372758 1.4289933651
H -8.4850180864 -2.1169024307 -0.3647514121
H -7.6981838828 -3.3453546867 -1.0835908959
H -4.5573543861 -2.2340138753 -1.5168421592
