22
CONF33
C 2.3436382740 -0.2561971738 -0.2656885436
C 0.8410386845 -0.1448878202 -0.5146712679
C 0.0405561949 0.0014066232 0.7942855159
C -1.4725773006 0.2390105381 0.6471343388
C -2.2910423304 -0.7860168549 -0.1247298913
O -2.0865682747 -0.6930907437 -1.5423491410
O -1.7222504389 1.4956593474 0.0145654879
O 0.4685974689 1.1414616700 1.5541641913
O 0.5175022095 -1.3568754202 -1.1778939071
O 2.8396105558 1.0015697503 0.2342703700
H 2.8242729905 -0.5102883001 -1.2183776300
H 2.5316534808 -1.0681253404 0.4523711858
H 0.6573690650 0.7369589326 -1.1513018539
H 0.1857157361 -0.9287670630 1.3717037037
H -1.8633355208 0.2551796764 1.6796724292
H -2.0198472264 -1.8024859204 0.1752647460
H -3.3540550639 -0.6246758089 0.0996112463
H -2.1383812445 0.2521168534 -1.7484838831
H -1.0850701500 2.1106268657 0.4074545137
H 1.4069420472 1.2993613369 1.3540713077
H -0.3774650444 -1.2422893996 -1.5518013095
H 3.7536961153 0.8803482673 0.5107284969
