30
CONF4
C -5.6699568288 -0.5261824040 -0.5143937182
C -5.0070600966 -0.4060537235 0.7030763751
C -3.6347367648 -0.2406495869 0.6875395219
C -2.8844573286 -0.1752791862 -0.4878478713
C -3.6049885376 -0.2922109049 -1.6796696557
C -4.9741041670 -0.4747673258 -1.7193021072
F -2.9237293036 -0.2591796788 -2.8411588543
C -1.4141129610 0.0867879257 -0.5099243472
O -0.9361235420 0.9757068464 -1.2073042373
N -0.6705984917 -0.7435506259 0.2931852345
C 0.7207171558 -0.7312201161 0.5427747601
O 1.2079918991 -1.5845963381 1.2692906815
N 1.4132052743 0.2681784966 -0.0698346389
C 2.8084547873 0.3941298685 0.0566236998
C 3.6152008829 0.4270268805 -1.0789049939
C 4.9872464583 0.5919423845 -0.9571537228
C 5.5691175325 0.7032332612 0.3006763319
C 4.7788581976 0.6743087828 1.4465910230
C 3.4007380820 0.5384809621 1.3111857680
F 2.6372606807 0.5822528253 2.4069036851
Cl 5.4977710649 0.8427142966 3.0100934868
F 6.8915224752 0.8447853498 0.4225209098
Cl 6.0038163766 0.6368111826 -2.3686434425
F -2.9882111016 -0.1060690265 1.8664989296
H -6.7456522400 -0.6630956036 -0.5249196868
H -5.5350815900 -0.4348793952 1.6490965486
H -5.4754722945 -0.5772019035 -2.6746247735
H -1.1487619261 -1.4942812933 0.7745429508
H 0.9177918666 0.8260941388 -0.7632475727
H 3.1633542232 0.3167636251 -2.0580117848
