55
CONF238
C 3.6600009447 -4.2965614807 -3.2131477260
O 4.1277694257 -4.0065849012 -1.8891109105
C 3.3451199037 -3.2165743591 -1.1033801824
C 2.1167193854 -2.6779567853 -1.4968727538
C 1.3989935472 -1.8832857862 -0.6067668998
C 1.8805025453 -1.6088222406 0.6732458795
C 3.1081177435 -2.1653792094 1.0528104852
C 3.8371159095 -2.9571493020 0.1810451729
C 1.1523921215 -0.7229909341 1.6498808355
S -0.6219714467 -1.2820658071 1.7556986806
C -1.4399751493 0.1526371228 2.4284313289
C -2.0491046206 0.0617907350 3.6832062971
C -2.7792917759 1.1281403123 4.1945116732
C -2.8799019930 2.3103098267 3.4647857171
C -2.2625409831 2.4200094462 2.2252359570
C -1.5513871659 1.3443632999 1.6881573570
N -0.9702828426 1.4784856560 0.3964751903
C -1.8584538405 1.8078476282 -0.7312561473
C -2.4648592592 0.5279747508 -1.3105771795
N -3.4025714031 0.8114750159 -2.3981886621
C -3.6496770526 -0.4062341549 -3.1755964082
C -4.6743977209 1.3271680805 -1.8826856091
C 0.3323049574 1.1721408214 0.1238909932
O 0.8079743630 1.2251695882 -1.0064826874
C 1.1928103415 0.7835447429 1.3303448641
O 2.5700374335 1.0921227789 1.0650895789
C 2.8598738559 2.4147289426 0.9562450916
C 4.2955176772 2.6220248932 0.5921686214
O 2.0318623189 3.2855171003 1.1198345646
H 3.5458609663 -3.3774487415 -3.7995679857
H 2.7070817902 -4.8376968843 -3.1831958225
H 4.4259138645 -4.9273794041 -3.6648391726
H 1.7090202817 -2.8686195477 -2.4818590548
H 0.4458242977 -1.4748145951 -0.9248576851
H 3.4997830648 -1.9689513364 2.0469717484
H 4.7882528025 -3.3868131101 0.4783400964
H 1.6049719671 -0.8472122348 2.6387704158
H -1.9501205164 -0.8579659559 4.2499239847
H -3.2553743521 1.0401331563 5.1654337388
H -3.4278908999 3.1564617161 3.8660509179
H -2.3211740238 3.3494208983 1.6682212649
H -1.2752521952 2.3296932466 -1.4926343869
H -2.6330872221 2.4817524464 -0.3621784302
H -1.6459577735 -0.0836441208 -1.7064178170
H -2.9421334754 -0.0523183331 -0.4947035746
H -4.0965321650 -1.2138794726 -2.5645750503
H -2.7096479097 -0.7746461288 -3.5986930836
H -4.3361759409 -0.1832126222 -3.9989131553
H -4.5228650815 2.2603422487 -1.3332815636
H -5.3477369028 1.5383020489 -2.7193927494
H -5.1738767013 0.6048937447 -1.2084817342
H 0.8700313520 1.3447537272 2.2121254319
H 4.5925837701 3.6424610107 0.8323455876
H 4.9387479338 1.8982873953 1.0961939221
H 4.3970540493 2.4662563638 -0.4877793404
