57
CONF17
C 3.4900946668 0.6869733153 -3.0832143372
C 2.8222625165 -0.1276611535 -1.9823640572
C 1.3599635847 -0.5542609826 -2.3100555952
C 0.5355465820 0.0789767750 -1.1902437541
C -0.9316234331 -0.3118882243 -0.9860981531
C -1.2182613616 -1.8031949775 -0.7720859312
C -2.7136999790 -2.0663640236 -0.5579107303
C -3.2579856099 -1.1981064938 0.5360036273
C -3.9136367151 -1.7062900083 1.5940678687
C -4.4910807482 -0.8767348723 2.6580159897
O -5.1050727704 -1.3661318465 3.6024072272
C -4.2962671851 0.5738304880 2.5220117010
C -3.6016875950 1.0982024567 1.5015162499
C -3.0450550302 0.2878407152 0.3676545049
C -1.5125733443 0.5698228038 0.1466657138
C -0.6446339156 0.4658968235 1.4280579475
C 0.8214786646 0.8503224112 1.1669042687
C 1.4520450274 0.0194990116 0.0526795442
C 2.7588740974 0.6271948743 -0.6146934128
C 4.0124610162 0.4040426349 0.2225429618
O 4.6427259812 -0.6382958159 0.1839635695
C 4.4597372728 1.5085916052 1.1538590026
O 5.5232221262 1.0958108288 1.9738377636
O 2.6815435378 2.0464092000 -0.7496125927
C 1.7540339556 -1.3960103189 0.5733065984
O -1.0657797883 1.3451440289 2.4630753543
F -1.4236718363 1.9142515125 -0.2859987724
C -3.8494566220 0.7676753669 -0.8787957295
H 4.4892190523 1.0170796325 -2.7829221667
H 3.5901976966 0.0791426650 -3.9876872381
H 2.9087195539 1.5782847730 -3.3400091790
H 3.4294779355 -1.0189049551 -1.8015954590
H 1.2655026756 -1.6446331342 -2.3169263957
H 1.0458967302 -0.1962361048 -3.2963543929
H 0.4581505829 1.1471820582 -1.4414334003
H -1.4584625274 -0.0128600142 -1.9027016964
H -0.8640284699 -2.3655522241 -1.6422343646
H -0.6776359605 -2.1906983333 0.0918214243
H -2.8841572711 -3.1189267636 -0.3145310085
H -3.2583553690 -1.8642501127 -1.4901616882
H -4.0720622721 -2.7772980578 1.6912579478
H -4.7360390601 1.1972141878 3.2953971917
H -3.4595707512 2.1730095767 1.4204038186
H -0.7092663677 -0.5789448641 1.7694063262
H 0.8421934955 1.9167943393 0.9231209656
H 1.3579832626 0.7225703548 2.1134105111
H 3.5988013159 1.8356457641 1.7577872728
H 4.7395675322 2.3759746196 0.5349933428
H 5.7713656574 0.2111873724 1.6585177772
H 1.8752861243 2.2800705228 -1.2227242226
H 2.5631494344 -1.3614301155 1.3061747136
H 0.8925404587 -1.8213787041 1.0872840658
H 2.0587798866 -2.0904657782 -0.2124725541
H -1.8467862534 0.9742302598 2.8913735608
H -3.5074203876 0.2912870381 -1.7984867652
H -4.9036356832 0.5186626454 -0.7319272380
H -3.7529148201 1.8483827293 -0.9942783999
