60
CONF7
C -2.7954061881 -1.1891124186 2.0486966619
C -1.9137505877 -1.6036399552 0.9201041900
C -1.2471343005 -0.8037511008 -0.0084214629
N -0.5269972977 -1.6414951445 -0.8151795262
N -0.6856223498 -2.9237318914 -0.4588572340
C -1.5127128648 -2.9150675780 0.5981634648
C -1.9059122790 -4.1762239557 1.2874031509
C 0.2661718740 -1.3083198030 -1.9869347899
C -1.2506491188 0.6349651085 -0.1369498502
C -0.1692787153 1.4544938284 -0.2374434542
C -0.4134739291 2.8269681749 -0.5147522738
N -0.5783764485 3.9522032199 -0.7427479274
C 1.2371709893 1.0408947298 -0.0676208252
C 2.2393991549 1.6225748442 -0.8472330109
C 3.5658798881 1.2231885892 -0.7147189279
C 3.9410255477 0.2381555317 0.2027457340
C 2.9271674130 -0.3205828772 0.9972571926
C 1.6038495961 0.0703484263 0.8744002409
C 5.3840018469 -0.2367638910 0.3695755131
C 5.8392320545 0.0140039060 1.8204394222
C 5.4549305601 -1.7464436092 0.0658141311
C 6.3495534994 0.4921085676 -0.5721707985
O -2.4971268713 1.2455384327 -0.0732358800
C -3.3786385778 0.9785327355 -1.1129219224
O -3.0478684848 0.3225079669 -2.0674338551
C -4.7169763747 1.6505007335 -0.8750518760
C -5.6494857286 1.3068604799 -2.0386770789
C -5.3124520740 1.1479236743 0.4515887025
C -4.4908181016 3.1736887424 -0.8077058695
H -2.7394226546 -0.1136127153 2.2287189639
H -3.8432963634 -1.4402075431 1.8477326850
H -2.5084765050 -1.7079100823 2.9693891991
H -1.5987237425 -4.1589908316 2.3389837935
H -2.9928356578 -4.3105797148 1.2695807907
H -1.4397074862 -5.0368596477 0.8034204621
H 1.3269385104 -1.2234264695 -1.7271557957
H 0.1312663491 -2.0957464842 -2.7303542074
H -0.0814469604 -0.3583240726 -2.3961200348
H 1.9814285345 2.3839863096 -1.5778252807
H 4.3073820670 1.6953120959 -1.3479113570
H 3.1744049326 -1.0740985970 1.7378973365
H 0.8503431349 -0.3738620048 1.5167873790
H 5.2213892979 -0.5323530073 2.5389989821
H 5.7870561869 1.0806545949 2.0630580805
H 6.8756491926 -0.3181325555 1.9452972878
H 6.4863775315 -2.0978394969 0.1778214937
H 4.8237172324 -2.3248938132 0.7467651883
H 5.1296121730 -1.9490118875 -0.9600479882
H 7.3629472479 0.1120466879 -0.4100838035
H 6.3609739849 1.5705585891 -0.3829724692
H 6.0926922772 0.3245158610 -1.6233197693
H -5.2406262477 1.6606169035 -2.9890232717
H -5.8077067307 0.2271855560 -2.1109445142
H -6.6166538800 1.7904416407 -1.8739564903
H -6.2892953499 1.6193025692 0.5979912680
H -5.4531921282 0.0626553384 0.4317540798
H -4.6728044739 1.4049491604 1.2991762064
H -4.0161086236 3.5405571289 -1.7233137602
H -3.8653606674 3.4465600102 0.0455737768
H -5.4622223449 3.6661803122 -0.7011732759
