39
CONF55
C 7.1502606083 2.4463764659 2.4001662913
C 6.4315450851 1.2573513293 1.7663842594
C 6.9149694957 0.9817173939 0.3421051242
C 6.3409018002 -0.2971926495 -0.2807176429
C 4.8079328438 -0.4157623755 -0.2945133765
C 4.3477081548 -1.7766060134 -0.8389658473
C 4.6000879877 -2.9395184405 0.1185513904
C 4.2058900439 0.7193890172 -1.1108343274
O 2.7467918086 0.7215715976 -1.0089870484
C 2.2350378430 1.3847889785 0.0366297545
O 2.8578283537 2.0300946371 0.8459700911
C 0.7355214473 1.2904746556 0.0456069869
C 0.0166650251 2.3996839854 -0.3775136923
C -1.3702784475 2.3783260737 -0.3723386217
C -2.0637987297 1.2463842532 0.0696399608
C -1.3371687938 0.1300479389 0.5193376851
C 0.0624676812 0.1603090642 0.5023672568
Br 1.0920889628 -1.2991463907 1.1468346505
Br -2.2421742402 -1.4073855169 1.1471400386
Br -3.9534529422 1.2303516672 0.0691790560
Br -2.2671619311 3.9345366447 -0.9850036818
H 6.7868577361 2.6381579168 3.4139950140
H 8.2304356616 2.2722380196 2.4561796534
H 6.9899314668 3.3565645512 1.8120796971
H 6.5876329754 0.3587249628 2.3793716181
H 5.3525932468 1.4504113644 1.7626272553
H 6.6956473322 1.8537976209 -0.2884036475
H 8.0095575586 0.8934106573 0.3473705388
H 6.7400405041 -1.1563577976 0.2709628984
H 6.7098414303 -0.4000422629 -1.3114377396
H 4.4376974783 -0.3113588142 0.7345176509
H 4.8514271345 -1.9644683305 -1.7978299192
H 3.2752028484 -1.7239801180 -1.0541405553
H 5.6660400759 -3.1013356821 0.3037020681
H 4.1196403114 -2.7550694935 1.0862970968
H 4.1923690162 -3.8713665322 -0.2841775917
H 4.4009184821 0.5853177002 -2.1793546629
H 4.5706262228 1.6959044448 -0.7854509395
H 0.5425266145 3.2854535180 -0.7128277566
