19
CONF9
C -2.7560958163 0.9840912983 -0.5920483919
C -1.7892604012 0.3064966613 0.3305157720
C -2.1523066770 -0.4039007539 1.4025462111
C -0.3569897015 0.4786476697 -0.0415984040
O 0.0052161198 1.1050833190 -1.0163261580
O 0.4972221696 -0.1268250897 0.8204036756
C 1.9020927550 -0.0052934016 0.5010240260
C 2.3108022613 -1.0677418444 -0.5130222942
O 3.7072562101 -0.9786744991 -0.7883326201
H -2.6442178708 0.6059401044 -1.6129542868
H -3.7839358344 0.8243676259 -0.2607600785
H -2.5556393593 2.0589145334 -0.6385423316
H -1.4190139296 -0.8785639081 2.0427234346
H -3.2008897081 -0.5221895440 1.6578425811
H 2.4310978491 -0.1526278598 1.4451514025
H 2.1049399154 0.9984683121 0.1124780710
H 2.1399717650 -2.0642134755 -0.0942964154
H 1.7059068006 -0.9660761685 -1.4241295545
H 3.8538443570 -0.1959032760 -1.3306747393
