22
CONF44
C 1.8448631405 -1.4301056604 -0.4910635173
C 0.5385914522 -0.6314897097 -0.5435429476
C 0.3765397633 0.2924619892 0.6688509765
C -0.6830998807 1.4028143883 0.5389336114
C -2.1266404974 0.9368529013 0.3513580082
O -2.3749290012 0.4870093382 -0.9857200487
O -0.3153529524 2.2971875288 -0.5136990097
O 0.0188452740 -0.4921340213 1.8212048728
O -0.5594671962 -1.5578660772 -0.6383300371
O 2.9978423515 -0.5859323298 -0.5188641948
H 1.8503394710 -2.1453551119 -1.3244521672
H 1.8977649196 -2.0003149449 0.4441327054
H 0.5276545106 -0.0346620718 -1.4642955368
H 1.3385546872 0.7963016330 0.8280081034
H -0.6413286844 1.9703822418 1.4779022223
H -2.3714919847 0.1627093057 1.0906947170
H -2.7892391307 1.7928566733 0.5152151182
H -1.9153361363 -0.3715647018 -1.0643905509
H -0.7751722760 1.9793291658 -1.3063344743
H 0.8273831773 -0.8082309217 2.2421314543
H -0.7094233562 -1.8840193812 0.2645654258
H 3.0431031373 -0.1762300379 -1.3923047363
