47
CONF12
C -6.7240444464 2.7443159058 2.0750698825
O -6.8642704322 2.0666156725 0.8066429937
P -6.2141373631 0.6111138673 0.6125323381
S -6.4379546139 -0.6673791935 2.0395634197
O -6.7824407822 0.2251505299 -0.8390778397
C -8.1208643381 -0.3123920560 -0.9495128481
O -4.6925509655 1.0274315110 0.2282351368
C -3.6408560674 0.1143679459 0.2215609499
C -2.5139351492 0.4376784643 0.9670224343
C -1.4197669590 -0.4147499878 0.9556414637
C -1.4474917326 -1.5790612327 0.1835347432
C -2.5842519885 -1.8852981349 -0.5659587185
C -3.6901880529 -1.0425736268 -0.5433192889
S -0.0954275503 -2.7468729515 0.1886679155
C 1.3344513680 -1.6798418270 0.0935055561
C 1.3942360594 -0.6066494938 -0.7995550047
C 2.5440601431 0.1645644424 -0.8833384505
C 3.6387378527 -0.1512709113 -0.0881453656
C 3.6013231419 -1.2195480530 0.7969192432
C 2.4400328190 -1.9789540051 0.8908029030
O 4.7514349625 0.6823889197 -0.1730236688
P 6.2379032466 0.1237293142 -0.5129620940
S 6.3636702365 -1.2864435556 -1.8230785059
O 6.7800340397 -0.1749606348 0.9688749998
C 8.0738952667 -0.8013026087 1.1306720212
O 6.9927160025 1.5052692107 -0.8296773811
C 6.9022254538 2.0779289052 -2.1531883048
H -5.6749428826 3.0022126007 2.2520640554
H -7.0967649199 2.1127098277 2.8867974374
H -7.3209381744 3.6532905981 1.9941793287
H -8.2287569124 -1.1947380785 -0.3117748847
H -8.8571381917 0.4471558421 -0.6693227543
H -8.2462522044 -0.5828452769 -1.9983686018
H -2.5110200254 1.3442514300 1.5618515377
H -0.5424919886 -0.1775942960 1.5476965568
H -2.6019284458 -2.7811229624 -1.1776382051
H -4.5739926249 -1.2703251931 -1.1282505150
H 0.5409992635 -0.3770193893 -1.4285978680
H 2.6091872915 0.9994715584 -1.5720808007
H 4.4618915242 -1.4413190319 1.4176856063
H 2.3900166994 -2.8025761522 1.5951010488
H 8.1091998136 -1.7460350774 0.5800958344
H 8.8646608546 -0.1311866605 0.7797163312
H 8.1852300484 -0.9795412864 2.2006194171
H 7.2245251297 1.3512374826 -2.9046623778
H 5.8754224200 2.3980783060 -2.3572416137
H 7.5665520791 2.9426395224 -2.1492320824
