18
CONF26
C -1.6437779418 -1.2351332101 1.2167104073
C -1.2138794685 -0.5458478162 -0.0705814430
C 0.2883567570 -0.2938990524 -0.1061465090
C 0.7020142024 0.4209186023 -1.3829543769
O 2.1396575083 0.4083851259 -1.5699276258
N 2.8401325759 1.4107033267 -0.8105158455
O 2.1807985121 2.1841490264 -0.1612274500
O 4.0289776477 1.3312123581 -0.9446868090
O -1.8389540406 0.7395540750 -0.2114298225
H -1.3849877550 -0.6155268783 2.0807633653
H -2.7257907132 -1.4067402311 1.2247004816
H -1.1520759242 -2.2076647164 1.3205439752
H -1.4858926284 -1.1814921329 -0.9321204485
H 0.8105242461 -1.2556305800 -0.0500227327
H 0.5716772215 0.3029730787 0.7674638146
H 0.3512024129 -0.1204937897 -2.2683244470
H 0.3243916640 1.4442875709 -1.4212171209
H -2.7923743821 0.6202450370 -0.1417182099
