47
CONF367
C -2.8829580108 -2.9810093597 -1.5872273769
C -2.6345950742 -2.2573095537 -0.2657383268
C -2.9492069731 -0.7630430599 -0.3421753385
C -2.6830492020 -0.0455814246 0.9815545353
C -2.9806272540 1.4632526463 1.0014003648
C -4.4808344086 1.7652354058 0.8637817471
C -4.8503185238 3.2285098432 1.1132649619
C -2.1968380399 2.2199589714 -0.0709622028
O -0.8136679041 1.7997593510 -0.1285777661
C 0.0121402363 2.3369292403 0.8090637840
O -0.3341670673 3.1967056851 1.5968146410
C 1.3625946550 1.7699184854 0.7711330272
C 1.7284694446 0.7422321878 -0.0182556116
C 3.0330191145 0.1121436484 -0.0932819132
C 4.1424296445 0.5263676288 0.6696846274
C 5.3612029217 -0.1067644955 0.5600106827
C 5.5206296822 -1.1860198331 -0.3225008880
C 4.4380777867 -1.6177131566 -1.0914833140
C 3.2166351326 -0.9668039908 -0.9674981553
O 6.7612511737 -1.7371108216 -0.3533712907
C 6.9776788781 -2.8351292092 -1.2379226017
H -2.6523819194 -4.0481131968 -1.5118451796
H -3.9297553769 -2.8857343680 -1.8955604379
H -2.2637139532 -2.5598254984 -2.3868676880
H -3.2410898274 -2.7152124591 0.5267344979
H -1.5869985043 -2.3877554288 0.0371029433
H -3.9975102368 -0.6347890496 -0.6429678436
H -2.3387126564 -0.3162040256 -1.1380125096
H -1.6327259076 -0.2016449976 1.2578297936
H -3.2807657136 -0.5183500700 1.7726754197
H -2.6522562284 1.8472736171 1.9765283020
H -4.8307857470 1.4651810208 -0.1327711095
H -5.0182434898 1.1315391895 1.5803802088
H -4.4578411834 3.5720972882 2.0763172350
H -5.9366603022 3.3585526045 1.1265082381
H -4.4533159325 3.8910881496 0.3384819378
H -2.5900438260 2.0017575783 -1.0689528426
H -2.2313623483 3.2981103795 0.1056251406
H 2.0448787466 2.2423422918 1.4694865341
H 0.9700302910 0.3240663100 -0.6766179737
H 4.0464053892 1.3591200000 1.3578768643
H 6.2159251673 0.2121337032 1.1465470233
H 4.5313588134 -2.4471405563 -1.7810467041
H 2.3771485912 -1.3058720313 -1.5680463709
H 6.8051748424 -2.5432063778 -2.2815157541
H 6.3330119111 -3.6849373149 -0.9804563505
H 8.0223615061 -3.1190050741 -1.1077686586
