51
CONF40
C 1.7002852270 0.0740207324 -0.2964901387
C 1.8117766856 -0.5109125571 -1.6794303604
C 0.9169157733 -0.0983114334 -2.6867018767
C 0.9514959528 -0.6864908747 -3.9489880723
C 1.8666352128 -1.6908041878 -4.2380804653
C 2.7563077016 -2.0995278518 -3.2569718615
C 2.7487232646 -1.5151635250 -1.9841097517
C 3.7567988464 -1.9912365658 -1.0024132192
C 3.7715092003 -3.3306349956 -0.6021279380
C 4.7358529885 -3.7955896163 0.2865434447
C 5.7045629272 -2.9291900653 0.7831512964
C 5.7052932816 -1.5953338980 0.3837051884
C 4.7400298933 -1.1304857341 -0.5020113328
C -0.0848936543 0.9845518461 -2.4206394772
O -1.0929412917 0.4815738856 -1.4931214965
C -1.4908643214 1.3207639327 -0.5054777134
O -1.1052937154 2.4622550147 -0.3754902427
C -2.4404306607 0.6202424723 0.3898227781
C -3.3485919752 1.4703986304 1.2743870355
C -2.2544170091 0.6292486557 1.9019149463
C -1.0954647351 1.3709611384 2.5264710981
C -2.6160216184 -0.6476965163 2.6280263522
C -4.7625741195 1.1040045537 1.3827366638
C -5.7624549559 1.9249150831 1.7180618206
C -5.5590315479 3.3877862720 2.0528928672
F -5.1912754807 4.0955457277 0.9557964426
F -4.5665734546 3.5387473983 2.9659742019
F -6.6562048633 3.9694392212 2.5573212575
Cl -7.4126159954 1.3610159965 1.7619371244
H 2.5226532263 -0.2396306051 0.3449250159
H 0.7661580179 -0.2548982767 0.1725277237
H 1.6750334048 1.1687856628 -0.3165087197
H 0.2502966873 -0.3539154110 -4.7091151521
H 1.8896628253 -2.1462854217 -5.2225599656
H 3.4905874292 -2.8703266310 -3.4708297386
H 3.0117186920 -4.0050676572 -0.9859964109
H 4.7291309251 -4.8370316613 0.5924774473
H 6.4579834122 -3.2915260091 1.4749427323
H 6.4650002732 -0.9159956156 0.7572742905
H 4.7500816493 -0.0935273341 -0.8251691010
H -0.6055893226 1.2678788157 -3.3401664978
H 0.3675999518 1.8801506681 -1.9862390004
H -2.8582175857 -0.2931187640 -0.0211068660
H -3.1113603190 2.5281071533 1.2300356041
H -1.3464938130 1.6288101735 3.5608234761
H -0.2030144967 0.7347239269 2.5454778934
H -0.8548494062 2.2875994685 1.9868221185
H -3.4075169920 -1.2112074265 2.1296987473
H -2.9491790797 -0.4197243463 3.6463393658
H -1.7362626885 -1.2959633604 2.6967809920
H -5.0299597332 0.0746160407 1.1628777645
