47
CONF221
C -7.0629903304 1.7530328755 0.2538555164
O -6.7954776764 0.8767690704 1.3947029306
P -6.0459762558 -0.5137469048 1.1881067080
S -5.7762811376 -1.4647675804 2.8555958959
O -6.9162889078 -1.2002144182 0.0393891195
C -6.5586456316 -2.5241483232 -0.4515088006
O -4.6875848867 -0.1896672289 0.3420338541
C -3.4949638853 0.1713334291 0.9686766122
C -3.3943961702 1.3651726825 1.6698128939
C -2.1686339174 1.7180639580 2.2279662858
C -1.0682766243 0.8704324052 2.0939948863
C -1.1912824491 -0.3333164378 1.3932711173
C -2.4064427012 -0.6804228157 0.8191477801
S 0.4625729936 1.3147667670 2.9057637141
C 1.6712399447 1.1232011649 1.6005750200
C 2.9530515082 0.6978012641 1.9580578466
C 3.9514452280 0.6015452410 0.9936580034
C 3.6459421104 0.9140814479 -0.3231182154
C 2.3764638587 1.3370605441 -0.6969411271
C 1.3880606508 1.4524665593 0.2722006652
O 4.6515505672 0.8653424738 -1.2973462279
P 5.0082621576 -0.5125463664 -2.0720317217
S 3.5506979210 -1.4571764378 -2.9344677975
O 5.7852895934 -1.2902040166 -0.9033872723
C 6.2281077506 -2.6611484982 -1.1175716916
O 6.0997846770 -0.0063971337 -3.1188298891
C 7.3101553696 0.6704384650 -2.6538329339
H -7.8044570590 1.2907937819 -0.4004957939
H -6.1372040656 1.9530839138 -0.2915745762
H -7.4537582510 2.6746344352 0.6832404685
H -5.5577174656 -2.5030194606 -0.8901245831
H -6.6052565586 -3.2482433905 0.3659234745
H -7.2998535363 -2.7642511558 -1.2128033826
H -4.2528518169 2.0217438557 1.7647903361
H -2.0712860619 2.6579270539 2.7609283897
H -0.3400393171 -0.9991031808 1.2962953732
H -2.5219865427 -1.6099311242 0.2720147067
H 3.1755621291 0.4385588323 2.9881643318
H 4.9512197740 0.2770567440 1.2588414041
H 2.1728621995 1.5863837648 -1.7325650431
H 0.3991350967 1.7974919104 -0.0099688011
H 6.7364859940 -2.9507269148 -0.1984497779
H 5.3652071343 -3.3072568544 -1.2965341149
H 6.9209303978 -2.7060386573 -1.9625169054
H 7.9188974346 0.8185215388 -3.5449037424
H 7.0494444493 1.6325178500 -2.2074355921
H 7.8392811919 0.0421050461 -1.9335533370
