47
CONF82
C 5.3379905184 -1.1689861463 -1.6269181221
C 4.0550247966 -0.7815777698 -0.9551141999
C 3.1841391404 -1.7782274478 -0.4245616352
C 3.5472627466 -3.2254351391 -0.5467477415
C 1.9956213773 -1.4227665176 0.1952131586
C 1.6202638881 -0.0803396107 0.3251382447
N 0.4552625603 0.3288044066 0.9560972771
C -0.4468113426 -0.6596688499 1.5919105550
C -1.5431075039 -1.2128907851 0.6750437723
O -0.9074581334 -1.7677638037 -0.4708675880
C -2.6354633572 -0.1856255566 0.3027121322
O -3.1915370629 0.3791942077 1.4823741824
C -3.7995047866 -0.8438368743 -0.4418844367
O -3.2796207205 -1.4034897659 -1.6613845941
C -4.9022464203 0.1476623351 -0.7677069250
O -5.8985975200 -0.5888389393 -1.4952535224
C 0.1579762745 1.6643853550 1.0686452526
N -0.9498655489 2.0273348436 1.6931910678
C -1.2616087116 3.3541825806 1.8098588225
O -2.2871018904 3.7430350522 2.3626542422
N -0.3745662168 4.3021747254 1.2744832256
C 0.8008819282 4.0426936465 0.6114189260
O 1.5166157714 4.9285890940 0.1675191401
C 1.1007178615 2.5919615075 0.4970374387
N 2.2035901328 2.2400609266 -0.1058173083
C 2.4878699466 0.9202915580 -0.2010307500
C 3.6882980184 0.5383006252 -0.8354284775
H 5.8758197135 -0.2845724400 -1.9731548246
H 5.1512008593 -1.8207509432 -2.4876577967
H 5.9882672769 -1.7249759852 -0.9424604835
H 3.6576784505 -3.5095687807 -1.5996519753
H 2.7895178758 -3.8644418262 -0.0907214683
H 4.5116614323 -3.4259442774 -0.0662216736
H 1.3494476803 -2.2124144070 0.5489406352
H 0.1706318702 -1.4849436109 1.9459984160
H -0.8959623603 -0.1891743746 2.4665022616
H -2.0370822721 -1.9991628036 1.2740212433
H -1.6113011215 -1.9347438072 -1.1231722377
H -2.1969009919 0.5899962837 -0.3482704170
H -2.5313991378 1.0405480590 1.7845761541
H -4.2133741293 -1.6473763814 0.1892025470
H -4.0253468327 -1.7965601097 -2.1349894891
H -4.4890545097 0.9613394673 -1.3815839166
H -5.3156478435 0.5651783982 0.1569260829
H -6.5307436780 0.0412440911 -1.8594491404
H -0.6395199094 5.2744158979 1.3840925943
H 4.3180824737 1.3326842782 -1.2235079344
