25
CONF2
C 3.1428357641 -1.5435356259 0.7664081244
N 2.2687514003 -0.5118385353 0.2162473504
C 0.9503262658 -0.9018711382 -0.1062786291
O 0.7261452216 -2.0278742794 -0.5203273491
N 0.0270803001 0.1085553443 0.0200216835
C -1.3349585307 0.0651782894 -0.3039953371
C -1.9238067315 -0.9677758571 -1.0423315166
C -3.2821944842 -0.9204321925 -1.3357479530
C -4.0514093098 0.1497270436 -0.9009579410
C -3.4827930883 1.1852662477 -0.1707672531
C -2.1286920505 1.1367047714 0.1255935234
Br -5.9199576461 0.2026424049 -1.3087364833
O 2.3489641535 0.6801861021 0.9981188037
C 3.1166622417 1.6558487477 0.2778985979
H 3.0412733638 -2.4341360196 0.1459535423
H 2.8799156061 -1.7865097713 1.8043829754
H 4.1753507876 -1.1884556842 0.7230123989
H 0.3520860430 0.9242103648 0.5179095907
H -1.3251120304 -1.8030442463 -1.3758053347
H -3.7352160006 -1.7229176100 -1.9059196716
H -4.0866785562 2.0186677387 0.1676931597
H -1.6833213223 1.9438787001 0.7009334620
H 2.6368239361 1.9085437480 -0.6749577240
H 3.1529604099 2.5339250408 0.9278249462
H 4.1349635534 1.2950569400 0.0919641500
