33
CONF39
C 4.5891167536 0.0635369963 -1.3714379798
C 5.5622018186 1.1526238645 -0.9027990763
O 6.7883021623 1.0784075505 -1.6232114171
C 3.3083748892 0.0669581651 -0.5684828323
C 2.2812333382 -0.9943410737 -1.0525894447
C 0.9922234017 -1.2558684627 -0.1900727759
C 0.0884402279 -0.0211571580 0.1360982817
C -1.3574022094 -0.4219077460 0.6058876890
C -2.0993610292 0.7401441526 1.3569533345
C -3.6509055875 0.5333946455 1.4294670528
C -4.3595371218 1.4176466384 2.5076396276
F -4.0734521324 0.9929801763 3.7423778018
F -3.9812053147 2.6977518416 2.3833511414
F -5.6844809708 1.3379538547 2.3251576819
F -3.9216462581 -0.7599237525 1.7215456390
F -4.1903899611 0.8406940293 0.2310819196
F -1.6151597896 0.8224077577 2.6166959563
F -1.8586050916 1.9059163426 0.7151471863
F -1.2771278371 -1.4831351363 1.4380268435
F -2.0856809054 -0.7636093921 -0.4808563353
F 0.6787384270 0.6912411084 1.1233424902
F -0.0275387220 0.7480592541 -0.9681082538
F 1.3711948659 -1.8343812969 0.9682896437
F 0.2458646353 -2.1444445852 -0.8971133902
F 1.8982802490 -0.6682025281 -2.3119275637
F 2.9194876243 -2.1956197879 -1.1054291815
F 3.5679172269 -0.1688474839 0.7542556153
F 2.7022378520 1.2942008581 -0.6518868006
H 4.3277191307 0.2119487339 -2.4251502137
H 5.0652467688 -0.9155884706 -1.2735143647
H 5.8207946320 0.9939912218 0.1473449213
H 5.1016823528 2.1453385155 -0.9920780972
H 6.6305579710 1.3770944525 -2.5254899943
