38
CONF664
F -1.9158009132 1.7816504653 0.2132106935
C -1.6105827825 0.4868872949 0.4437147971
F -1.8791037268 0.2029135408 1.7384085447
C -0.0988752796 0.2322882101 0.1548888517
F 0.2566769894 -0.9274299005 0.7482431017
F 0.0692984092 0.1266086482 -1.1835959289
C 0.8389530016 1.3713442559 0.6733687547
F 0.6952320009 2.4576575168 -0.1126925329
F 0.4531067642 1.6924456292 1.9352483594
C 2.3765936090 1.0405714399 0.7757120808
F 2.9753773374 2.1990123726 1.1529640860
F 2.5577137843 0.1274353632 1.7522611353
C 3.0781695911 0.5323998735 -0.5225355727
F 2.7110223782 -0.7498226770 -0.7384814421
F 2.6956879114 1.2899494921 -1.5748833773
C 4.6416739726 0.5738546298 -0.4653848594
F 5.1241215761 -0.0908083758 -1.5241524012
F 5.0892661127 1.8328667847 -0.5130510895
F 5.0915787359 -0.0098868813 0.6535614997
S -2.7637125180 -0.6020926416 -0.6499849871
O -2.1624085451 -1.9359800058 -0.5935185669
O -2.9378525840 0.1612155481 -1.8824525074
N -4.1833550789 -0.6454373951 0.1788464860
C -4.3967356487 -1.7097443703 1.1735011628
C -5.0764767026 -2.9346390771 0.5896017369
O -6.3991868626 -2.5617311287 0.1931099636
C -5.2062335924 0.4073063267 0.0092353980
C -5.2310529280 1.4207752245 1.1479192884
H -3.4425470894 -2.0108494143 1.6140234204
H -5.0154827105 -1.2915549792 1.9754311845
H -4.4892567265 -3.3037407077 -0.2612418985
H -5.1028275306 -3.7159924797 1.3663922185
H -5.0157821595 0.9023103517 -0.9460162426
H -6.1657564393 -0.1115954074 -0.0755035198
H -5.4078000736 0.9416387276 2.1154361829
H -4.2941726325 1.9797742924 1.2069164820
H -6.0439957185 2.1335690156 0.9791355764
H -6.7758614592 -3.2801865444 -0.3244952424
