68
CONF5
C 1.5797925029 -4.7355757960 -0.4029052233
C 0.9716237826 -3.7456146305 -1.3936253212
C 1.6220027122 -2.3404637993 -1.3999720575
C 0.8501997415 -1.4393742490 -2.3796326739
C 1.5373760344 -1.7499708926 0.0061691432
O 0.2597631247 -1.6074243875 0.4082921568
C 0.0236296464 -1.1374329626 1.7767341443
C -0.0142747449 -2.3651797971 2.6714096952
C -0.2784577847 -1.9886200523 4.1277559880
C -1.4379169394 -1.0434089350 4.2007757948
C -1.9087393112 -0.3321795811 3.1600242929
C -3.0474327122 0.5607351288 3.3178761476
C -3.4033890266 1.4571133050 2.3854112862
C -2.6213461929 1.6868430858 1.1248860578
C -1.2028887330 1.0827818976 1.2467589037
C -1.2994226252 -0.3748090042 1.7684126286
C -0.3833425914 1.2367608655 -0.0379825011
C -0.2593656667 2.6874604305 -0.5076768962
C 0.6853109342 2.8439275955 -1.6845872252
C 0.9284615189 4.2830908916 -2.0930884701
C 1.7918105971 4.3127512303 -3.3430515259
C 1.0544959193 3.5919938136 -4.4664394200
C 0.3715057204 2.2997550811 -4.0792929762
O 0.0945857329 2.0608816243 -2.7851233451
O -0.0047700757 1.4927690947 -4.9067908719
O 2.1633917499 5.6364740633 -3.7355503126
C -3.4156678941 1.1980221197 -0.0995189752
C -0.5158693087 -3.2341363820 4.9879345768
O 2.4937696045 -1.4445748950 0.6936999155
C 3.0903637215 -2.4111568463 -1.8259925821
H 1.5118827675 -4.3646749213 0.6261934467
H 1.0462682876 -5.6899704753 -0.4443554506
H 2.6333297442 -4.9340096673 -0.6198793774
H 1.0557265856 -4.1401847260 -2.4141071383
H -0.0975158399 -3.6289762970 -1.1857498147
H 0.9662195553 -1.8334102881 -3.3946805098
H -0.2153799588 -1.4079915477 -2.1389547080
H 1.2371225613 -0.4157458062 -2.3639075207
H 0.8498009772 -0.4785971793 2.0673862668
H 0.9331493002 -2.9077269958 2.5834922405
H -0.8169373368 -3.0275993129 2.3191348175
H 0.6139980399 -1.4757746172 4.5231425554
H -1.9256533596 -0.9301941442 5.1693509147
H -3.6186463861 0.4749821639 4.2403861532
H -4.2884184139 2.0725354103 2.5367673502
H -2.5091965044 2.7751256420 1.0181755679
H -0.6869572883 1.6563057072 2.0333979206
H -1.9886654073 -0.9321886823 1.1160924233
H -0.8071415658 0.6183719761 -0.8348302738
H 0.6312029843 0.8612459517 0.1384905917
H -1.2313411289 3.1072111092 -0.7919161151
H 0.1320953706 3.3071167358 0.3098690032
H 1.6444485261 2.3562383971 -1.4598616445
H 1.4353981651 4.7960632426 -1.2695485142
H -0.0281144987 4.7902306019 -2.2818097954
H 2.7408685415 3.8038534475 -3.1357302086
H 0.2426976927 4.2414301326 -4.8272551239
H 1.7031285502 3.3882164267 -5.3220503608
H 1.3530587967 6.1276290357 -3.9282674858
H -4.4206979678 1.6317733406 -0.0880963675
H -3.5249302619 0.1089480981 -0.0938001593
H -2.9345268758 1.4915758838 -1.0373834789
H -1.4018735761 -3.7757703065 4.6384727492
H -0.6741828280 -2.9601072457 6.0358590846
H 0.3435862314 -3.9104155306 4.9360156596
H 3.1563428382 -2.8794211353 -2.8132090023
H 3.5213349536 -1.4077712620 -1.8900543553
H 3.6933194721 -2.9897597654 -1.1231287729
