47
CONF143
C -3.8788820362 -4.3506984871 0.0928311825
O -4.3602500752 -3.6932034457 -1.1200826403
P -5.3201394217 -2.4234853912 -1.0259980980
S -5.7811721312 -1.7051458398 -2.7634541407
O -6.4872207861 -2.9594768761 -0.0747437947
C -7.5981132910 -2.0842631142 0.2680788045
O -4.6001882044 -1.3749956331 -0.0012403306
C -3.6863538380 -0.4175278063 -0.4423087142
C -4.0252305362 0.9186064376 -0.2902955401
C -3.1051213377 1.8971628670 -0.6529870654
C -1.8692536366 1.5307464827 -1.1898867252
C -1.5511896955 0.1795771421 -1.3539565395
C -2.4549805447 -0.8002185413 -0.9642956647
S -0.7662604043 2.8292291797 -1.7344198027
C 0.8352358251 2.2437069223 -1.1946613046
C 1.9231445531 2.4124166588 -2.0535522180
C 3.2001451883 2.0448972183 -1.6417522662
C 3.3694148205 1.4844100805 -0.3848078745
C 2.2950889499 1.2961858616 0.4786006112
C 1.0269236530 1.6942813491 0.0759123598
O 4.6538119238 1.0614893297 -0.0354435935
P 5.4413491327 1.7008684696 1.2332737720
S 5.2348096116 3.6010220147 1.5408976274
O 6.8805277019 1.1402147344 0.8073601366
C 8.0226204772 1.4445372084 1.6574550760
O 4.9830851887 0.8598350209 2.5210236215
C 5.0550772757 -0.5981566631 2.4943717709
H -3.1613600044 -5.0962807815 -0.2476905980
H -4.7118069218 -4.8308800174 0.6101115326
H -3.3871544337 -3.6245195379 0.7454876671
H -7.2318908594 -1.2094825641 0.8119129476
H -8.1248415892 -1.7787390164 -0.6398084205
H -8.2538042012 -2.6771318815 0.9047958734
H -4.9919020986 1.1860100755 0.1226043698
H -3.3513026667 2.9450578153 -0.5162258982
H -0.5959781683 -0.1103634491 -1.7785885393
H -2.2105765276 -1.8513461548 -1.0775207182
H 1.7766674097 2.8302368603 -3.0440807620
H 4.0569043196 2.1754039882 -2.2936924391
H 2.4477782249 0.8576704833 1.4589969486
H 0.1868789748 1.5686342242 0.7506764823
H 8.8702000123 0.9353050109 1.2002523156
H 8.1934547684 2.5239198860 1.6787986561
H 7.8570100655 1.0651575126 2.6700395871
H 4.4115938435 -0.9922365147 1.7031664976
H 6.0873446458 -0.9233451308 2.3423341451
H 4.6959057377 -0.9250857918 3.4695576940
