41
CONF121
C -3.3732687888 -1.9593385242 -0.8388276437
C -3.4927500952 -0.8582217976 -1.9026931178
C -4.1486577303 -1.4066823971 -3.1678116001
N -2.2151062095 -0.2362740456 -2.2743469489
C -1.5583545609 0.5128526703 -1.2104504780
C -0.1708329433 0.9434691501 -1.6819724622
O 0.6422979557 -0.1940416653 -1.9777852356
C 0.5335867879 1.8498920944 -0.6851456652
O 0.6743038506 1.0894674172 0.5201897982
C 1.6347639660 1.4380538832 1.4237714311
C 2.2706554057 2.6778496306 1.4447053409
C 3.2379960432 2.9349500063 2.4145881750
C 3.5656721786 1.9684035285 3.3558203316
C 2.9145367174 0.7362026954 3.3266017998
C 1.9459374560 0.4481987480 2.3716244267
C 1.2488992031 -0.8828645859 2.3185284398
C 1.6843928841 -1.7972994181 1.2023418535
C 2.6627676707 -1.5642729400 0.3309955227
H -2.7530992690 -2.7814276152 -1.2164661926
H -2.9227147282 -1.5890475101 0.0864280228
H -4.3573373328 -2.3686243895 -0.5868037309
H -4.1287213747 -0.0545498182 -1.5018310827
H -5.1288387394 -1.8398886531 -2.9458817646
H -3.5261759747 -2.1961675364 -3.6060260096
H -4.2686362881 -0.6161789950 -3.9128827652
H -1.5715843802 -0.9555603236 -2.5965473968
H -2.1564773944 1.4080275793 -0.9832903784
H -1.4388821859 -0.0463870475 -0.2648347451
H -0.2759133514 1.4905368301 -2.6274594895
H 0.9137224039 -0.5819483932 -1.1296311714
H -0.0473389363 2.7650746697 -0.4978218381
H 1.5239759662 2.1179263545 -1.0756480952
H 2.0117939023 3.4438364322 0.7233226381
H 3.7308939522 3.9017507541 2.4289102318
H 4.3188911701 2.1691106064 4.1097769550
H 3.1669251632 -0.0259972789 4.0589428191
H 1.3994168335 -1.4081610616 3.2709899520
H 0.1642146871 -0.7327812143 2.2301473353
H 1.1302935390 -2.7341745838 1.1399847573
H 3.2416326617 -0.6447331812 0.3608972949
H 2.9171203824 -2.2903396675 -0.4344093191
