42
CONF120
C 4.4676844116 0.6721113911 1.5164010144
C 3.6786148852 1.7568048871 0.7838101561
C 4.6107993390 2.7084633106 0.0304409193
C 2.6893213545 1.1557710449 -0.2059638809
O 1.7128533385 0.3352680519 0.4846870325
C 1.7848069660 -0.9979101096 0.3000316360
O 2.6678888851 -1.5836176151 -0.2821768412
C 0.6689262914 -1.6916560454 1.0138942614
C 1.0196442774 -2.7019571412 1.9059843023
C 0.0438902038 -3.3527968275 2.6524237322
C -1.2938344070 -3.0003110744 2.5048758058
C -1.6542800909 -2.0069321353 1.6024990965
C -0.6814347870 -1.3493030722 0.8462956494
C -1.0803991289 -0.3984235277 -0.2277308198
O -0.4494088663 -0.2185121543 -1.2461912364
O -2.2541278694 0.2090224641 0.0576810361
C -2.7747342635 1.0879429883 -0.9730052132
C -3.5209920271 0.3223507178 -2.0597993166
C -4.0098585213 1.3203193239 -3.1115175816
C -4.6811308277 -0.4842538517 -1.4777295945
H 5.0320278049 0.0586005121 0.8058905857
H 3.8049569258 0.0088918204 2.0799584316
H 5.1736563597 1.1210847111 2.2221520240
H 3.1048483327 2.3355281532 1.5208679851
H 5.2014883904 2.1626828136 -0.7143063431
H 4.0527391092 3.4946711414 -0.4889008615
H 5.3090998786 3.1906124221 0.7207356719
H 3.2037616519 0.5464721114 -0.9555952362
H 2.1058725192 1.9361539343 -0.7050819192
H 2.0670892471 -2.9644061096 2.0108848214
H 0.3290173489 -4.1344886041 3.3488614632
H -2.0591038343 -3.5073257230 3.0832091110
H -2.6964949970 -1.7457841949 1.4618585175
H -1.9465306249 1.6630911191 -1.3982738617
H -3.4550645839 1.7584989063 -0.4378930039
H -2.8064561979 -0.3622987071 -2.5332039738
H -3.1771647504 1.8725263217 -3.5585619836
H -4.7027558742 2.0458561578 -2.6686524255
H -4.5406563175 0.8021743193 -3.9153385515
H -5.1955037061 -1.0442661081 -2.2646207763
H -5.4140765719 0.1790171663 -1.0024944929
H -4.3349788822 -1.1996720001 -0.7264054297
