111
CONF39
C 3.0641225924 -1.0998911733 1.4366626623
N 2.1709952013 -1.9977970390 2.1867371939
C 2.6453724814 -3.2812760337 2.6682924379
C 0.8957977369 -1.8628437441 1.6576269969
C -0.1894906471 -2.7280330085 1.7709195454
C -1.3862940807 -2.3570039389 1.1417198580
O -2.5030696932 -3.1455292317 1.1676269047
C -2.4184130179 -4.4275185802 1.7975544250
C -1.5108280795 -1.1580711078 0.4145323386
C -0.3918817912 -0.3187106398 0.3392890238
C 0.7938122945 -0.6643889477 0.9458853142
C 2.1055298361 0.0726100977 1.0699909965
C 2.0531502119 1.1028218632 2.2600473455
C 2.3847681120 2.4484725965 1.6166477134
N 3.2394759699 2.0700808036 0.4917176763
C 3.4723430181 3.1551057781 -0.4492064118
C 4.0888195142 2.6337965727 -1.7089831430
C 4.0458317106 1.3477400615 -2.0514731998
C 3.2849138748 0.2909037141 -1.2809535890
C 2.2360823782 -0.3215693878 -2.2611509635
C 2.7772012433 -1.1620375874 -3.4148677486
C 4.2998175474 -0.7562582297 -0.7755231847
O 5.3567194284 -0.0410587308 -0.0887189289
C 6.6377585381 -0.3769147051 -0.3587521762
C 7.5805475901 0.4918049778 0.4151918888
O 6.9604049395 -1.2547788542 -1.1338555426
C 3.7057107028 -1.8064119347 0.2092814497
O 2.7330487340 -2.5741172048 -0.4706837635
C 4.8456276496 -2.7700046115 0.5947016117
O 4.9918149851 -3.8356621114 0.0257920657
O 5.6467027824 -2.3119468256 1.5540385140
C 6.7794207759 -3.1633350909 1.8851355367
C 2.5115731173 0.9557670146 -0.1283710378
C -2.8419369781 -0.8122546149 -0.2604789219
C -3.9481228919 -0.5065955568 0.7772082767
C -3.6066522484 0.4991727205 1.9078852914
C -2.8484722292 1.7787482661 1.5251396617
N -3.6613036955 2.7812887648 0.8314415515
C -4.7415729528 3.2199567878 1.7226211036
C -5.4340229856 2.1091888140 2.4861934494
C -6.7495458234 2.4667558931 3.1241340652
C -7.9043268198 2.4936566041 2.1115642704
C -4.8943144219 0.8884535468 2.5851353110
C -4.2232377553 2.2852758669 -0.4497298861
C -3.2167454556 1.6046351151 -1.3250002545
C -2.6788552557 0.3265718733 -1.2535495683
N -1.7998904808 0.1525557686 -2.3077207768
C -1.7172511145 1.2991349947 -3.0502744234
C -0.9511688946 1.5922993805 -4.1782563815
C -1.0732986275 2.8670460027 -4.7154948796
C -1.9398562402 3.8192397421 -4.1450792599
C -2.7032142934 3.5190675993 -3.0255116160
C -2.5988625407 2.2408787305 -2.4567014475
C -3.2426248884 -2.0160659727 -1.1523532764
O -2.4540346158 -2.6359112525 -1.8386145977
O -4.5604982281 -2.2456546328 -1.1528403959
C -5.0060402984 -3.3194987951 -2.0199091802
H 3.8792007216 -0.7447674925 2.0710117972
H 2.7230707442 -4.0345628496 1.8679769823
H 1.9584556606 -3.6625349726 3.4305320434
H 3.6237776931 -3.1542406779 3.1395593701
H -0.1024692157 -3.6676268038 2.3000611811
H -1.6552312079 -5.0517784705 1.3181959394
H -2.1975923235 -4.3277642569 2.8667255698
H -3.4006666210 -4.8836609283 1.6687970064
H -0.4540573671 0.6044196702 -0.2266073274
H 2.7986683778 0.8430187856 3.0166615148
H 1.0704981830 1.1058856359 2.7370657466
H 2.9012345968 3.1391369579 2.2920979240
H 1.4592795154 2.9437333522 1.2588474912
H 4.1341622821 3.8999757315 0.0125416248
H 2.5273805491 3.6882973662 -0.6955948100
H 4.5862768635 3.3547921734 -2.3531540665
H 4.5342652829 1.0148433519 -2.9647084170
H 1.6826430602 0.5346877174 -2.6677002115
H 1.5194388313 -0.9139969465 -1.6882263236
H 1.9547178324 -1.4291506062 -4.0861269151
H 3.5229225359 -0.6263933063 -4.0105501581
H 3.2271062539 -2.0944985002 -3.0632123808
H 4.7322464700 -1.2938331299 -1.6242419861
H 7.5373524833 1.5086525037 0.0105319965
H 7.2756538542 0.5412759253 1.4634432239
H 8.5960449591 0.1074409199 0.3274397106
H 3.1970032355 -3.3506372897 -0.8267133877
H 6.4218082295 -4.1301753598 2.2456573799
H 7.3165922218 -2.6301719460 2.6677568294
H 7.4066608979 -3.2979657064 1.0013175912
H 1.5719045620 1.3515603938 -0.5709939436
H -4.8419739987 -0.1839398210 0.2432953634
H -4.2125678192 -1.4489691708 1.2620690477
H -2.9728410874 -0.0395894283 2.6276801794
H -1.9672695439 1.5545806291 0.9251801384
H -2.4900244294 2.2445171544 2.4529167470
H -4.3331256690 3.9353815619 2.4554800939
H -5.4764525933 3.7831298577 1.1322228951
H -6.9793145388 1.7450461304 3.9160418838
H -6.6665944537 3.4534889989 3.6010691684
H -8.0419000756 1.5035740653 1.6651566779
H -8.8409845258 2.7846706654 2.5975580556
H -7.7122627865 3.2044387750 1.3015675371
H -5.4255295036 0.1133861542 3.1396269365
H -4.6016802575 3.1604533519 -0.9919392695
H -5.0972537617 1.6375531389 -0.2796737649
H -1.2764138967 -0.6954079519 -2.4667300628
H -0.2844483441 0.8542956839 -4.6137012402
H -0.4896395759 3.1345065629 -5.5908143238
H -2.0083052839 4.8066063747 -4.5912386695
H -3.3647816497 4.2658020397 -2.5961861038
H -6.0863639255 -3.3641430333 -1.8890872584
H -4.7499099731 -3.0946744142 -3.0578132573
H -4.5402494120 -4.2605596459 -1.7180128906
