45
CONF10
C -4.2894547028 3.6699911660 2.6644619184
C -4.3062693843 2.2261483626 2.2776354609
C -3.4156200761 1.6449942975 1.4660569097
C -3.4900042951 0.2244878711 1.0893460992
C -2.2435795436 -0.6919081694 1.0308913612
C -3.0204949466 -0.3110709056 -0.2332322751
C -2.4039149381 0.6084377635 -1.2609306680
C -3.8260476059 -1.4401559694 -0.8398034137
C -0.8959709441 -0.1791042348 1.3015023283
O -0.4673354104 0.9436226058 1.1120081331
O -0.1207743508 -1.1771615297 1.8217975660
C 1.2621461502 -0.8273022065 2.0830515818
C 2.0378915457 -0.6948581774 0.8034945170
C 2.1668946303 -1.7753998514 -0.0625455067
C 2.8498125221 -1.6717617680 -1.2652114851
C 3.4495132953 -0.4828742225 -1.6637470638
C 3.3322994867 0.5919640833 -0.7893331434
C 2.6448060294 0.4939995689 0.4112012342
F 2.5786045182 1.5788847778 1.2004726622
F 3.8969512440 1.7702701982 -1.1119921017
C 4.2481105911 -0.3567336028 -2.9401837633
O 5.6514430433 -0.3224751338 -2.6870982538
C 6.1569483016 -1.5809248790 -2.2329829244
F 2.9333520360 -2.7633620745 -2.0491140536
F 1.6203057435 -2.9584512794 0.2717538040
H -5.2188451300 4.1687449527 2.3630636113
H -3.4490418628 4.1970860588 2.2035892309
H -4.2155298991 3.7836605367 3.7530168632
H -5.1119819374 1.6198771269 2.6949709841
H -2.6064980655 2.2411530136 1.0536460772
H -4.3452721052 -0.2974093938 1.5145690145
H -2.4032105447 -1.7059757914 1.3806936593
H -1.7585985273 0.0340075911 -1.9347901839
H -1.8086661167 1.4053580205 -0.8172465728
H -3.2004617305 1.0608908247 -1.8619997882
H -4.2618623525 -2.0809888540 -0.0681585901
H -3.1939198424 -2.0571098971 -1.4880917601
H -4.6405155335 -1.0304633946 -1.4478470216
H 1.3138630530 0.0955887759 2.6619484688
H 1.6423980199 -1.6601382278 2.6771940996
H 4.0048771754 0.5889251389 -3.4305830565
H 3.9958402211 -1.1825843308 -3.6172017154
H 5.9459529083 -2.3740172150 -2.9639799719
H 7.2366170467 -1.4641287028 -2.1216330857
H 5.7252430824 -1.8617332141 -1.2619920702
