43
CONF139
C -0.5204176859 3.6427575941 -3.2806519689
C 0.4191139569 2.4946495705 -3.1998193221
N 0.0625515331 1.2435027440 -3.2692123195
N 1.1045242935 0.3611549553 -3.1990292272
C 2.2594838025 0.9545427839 -3.0624790093
S 2.1557114675 2.7040553122 -3.0042476350
S 3.8167548651 0.1569439858 -2.9307142534
C 3.2779310315 -1.5365741938 -2.3773109489
C 2.6431653576 -1.4613613562 -1.0333556739
C 1.3337843708 -1.7173754378 -0.7948379399
N 0.8521141172 -1.3299852364 0.4618731687
C 1.0984289142 -0.0494443397 1.1556894011
C 0.7494733776 -0.7942871605 2.4902411249
C 0.4060080248 -2.0032541315 1.5824328773
O -0.0177252041 -3.1226213283 1.7435377951
N -0.2553914235 -0.2719038464 3.3659675566
C -1.5427973880 -0.1491136224 2.9675288597
O -1.9286903882 -0.4308615321 1.8397162537
C -2.4991675406 0.3336368367 4.0652288224
N -3.7317582600 0.8184624086 3.4852182510
C -4.8152728481 0.1388802992 3.0710585030
N -5.6568860827 0.9858114587 2.5081014456
N -5.0496186770 2.2016487040 2.5767748778
N -3.8954219593 2.1146992645 3.1510531609
S 2.7747309610 0.6006276919 0.8330118084
C 3.4648444461 -0.9749803008 0.1216703712
C 0.3687260230 -2.2827021956 -1.7688208494
O 0.6638049997 -2.9884303041 -2.7126985531
O -0.8979735720 -1.9530373626 -1.4513169286
H -1.5380866273 3.2600810317 -3.3763770883
H -0.2904266279 4.2717764536 -4.1460722717
H -0.4533747007 4.2667943213 -2.3845522766
H 4.2217090461 -2.0911015320 -2.3367906003
H 2.6296256435 -1.9712849288 -3.1340714599
H 0.3700000086 0.7237184634 0.8919118329
H 1.6534819537 -1.0105254815 3.0652992336
H 0.0116088357 -0.0009538585 4.3010421350
H -2.7280320206 -0.5072558933 4.7282731068
H -2.0548888897 1.1358620690 4.6598410828
H -4.9501780153 -0.9254454582 3.2023948404
H 3.4860057961 -1.7274604577 0.9169083961
H 4.4886465982 -0.7409796724 -0.1762360776
H -1.4861230318 -2.3686658154 -2.1046536748
