32
CONF4
C 3.5199327390 0.2610509447 -0.9851489335
C 2.5274865137 1.2090045354 -1.1580164905
C 1.5287437808 1.3901554745 -0.1940687046
C 1.5659653343 0.6015748891 0.9715986822
C 2.5650322713 -0.3340913833 1.1757368809
C 3.5227747472 -0.4938948826 0.1823006459
N 4.5774618575 -1.4948635356 0.3852153821
O 4.5898655656 -2.1130023894 1.4456806993
O 5.3908327817 -1.6604722829 -0.5188595235
Cl 0.3299884983 0.7877889377 2.1923418413
N 0.5289718758 2.3617627692 -0.4059391523
S -0.6576337712 2.0246800265 -1.6135351497
O 0.0673508153 1.7455733207 -2.8552794318
O -1.6168559419 3.1273046698 -1.5113370799
C -1.4341233149 0.5082518554 -1.0635800045
C -2.5731250214 0.5897218983 -0.2738907744
C -3.1441019127 -0.5782598083 0.2196900956
C -2.5426471835 -1.8084328673 -0.0819621338
C -1.4007014819 -1.8754312611 -0.8734614449
C -0.8390065149 -0.7097882302 -1.3751888592
Cl -3.2025531256 -3.3077577032 0.5135643154
C -4.3914866308 -0.4860135883 1.0625799032
F -4.2061308781 -0.9993775747 2.3017857709
F -4.7900958767 0.7927140818 1.2240106565
F -5.4291420789 -1.1531665513 0.5032027163
H 4.2914088555 0.1247425288 -1.7314957753
H 2.5173907655 1.8339546234 -2.0422991696
H 2.5883126549 -0.9381648321 2.0733131257
H 0.0414640025 2.6383825254 0.4466663373
H -3.0130102374 1.5527479235 -0.0459516937
H -0.9560033166 -2.8372671223 -1.0997789491
H 0.0436344128 -0.7594264730 -2.0030496793
