35
CONF23
C -4.6419066580 -1.0420612497 -1.9869896133
C -4.4600792470 -1.8600608960 -0.7285188736
O -3.3204982138 -1.3701397604 0.0519131516
C -2.1214392006 -1.7724226740 -0.3103066876
N -1.8832703235 -2.6117775410 -1.2840271730
C -0.6108310496 -2.9452543813 -1.5344170306
C 0.5002949022 -2.4952539834 -0.8746975234
C 0.2428052416 -1.5906986263 0.1672335201
N 1.0224376584 -0.9397662734 1.0258269367
C 0.1221321503 -0.2374911361 1.7527172993
N -1.1656640411 -0.3660165880 1.4557892507
N -1.0904021646 -1.2487121789 0.4232478963
S 0.6508788656 0.9403987787 3.0167440480
O 1.8828120726 0.4190940169 3.5868164870
O -0.5199606587 1.3229186068 3.7935997674
N 1.0497888451 2.3458718165 2.0952142746
C 2.1258771589 2.2743597192 1.1822123793
C 1.9343247734 2.0570773973 -0.1925626111
C 2.9886619835 1.9900337062 -1.0896521513
C 4.2854179998 2.1320526671 -0.6119611457
C 4.5185748039 2.3823043717 0.7329000354
C 3.4483049783 2.4755581584 1.6153360934
Cl 3.7743600036 2.9163504613 3.2637391820
Cl 0.3009000978 1.9042418202 -0.8178814187
F -0.4621977418 -3.8101290219 -2.5436111988
H -3.8009554579 -1.1785248957 -2.6705869005
H -4.7456759215 0.0191329159 -1.7464519243
H -5.5528276649 -1.3708006948 -2.4965842235
H -5.2973679090 -1.7382891669 -0.0393488440
H -4.3072600928 -2.9207108790 -0.9423777571
H 1.5042683679 -2.8045524892 -1.1265863611
H 0.1904278220 2.7045439501 1.6850170494
H 2.7920259096 1.8217103084 -2.1413079746
H 5.1212456398 2.0670911961 -1.2998710881
H 5.5247971657 2.5299225243 1.1055276122
