50
CONF20
C 6.0592897243 1.3919878713 -1.9954439882
C 6.3788422275 0.9968795054 -0.5689911958
O 5.2222437459 0.3942935089 0.0758060168
C 4.3109416000 1.2577302630 0.5942062601
O 4.4592476202 2.4755833148 0.5986746674
N 3.2479474870 0.6046746378 1.1503110326
C 2.0617123623 1.3921074495 1.4906684792
C 1.0435371719 1.3418002737 0.3356626228
C 0.7167713278 -0.0870323310 -0.0022766555
C -0.5283411714 -0.6010425864 -0.0231707932
C -1.7521265935 0.1626424248 0.3384606434
C -2.8662169420 0.2939309277 -0.5145487531
C -2.9828460753 -0.2601086214 -1.9231719253
C -1.7963331700 -1.0414970742 -2.5004025976
C -1.4357589352 -2.2283618334 -1.6575696510
C -0.7959860847 -2.0102085948 -0.4278564851
N -0.4477499715 -2.9986130959 0.4085656376
C -0.7249269044 -4.2568972323 0.0349805030
C -1.3552213751 -4.5767919282 -1.1612961936
C -1.7150851874 -3.5421315356 -2.0198259345
C -3.9851416274 1.0027903930 -0.0562657444
C -4.0026688487 1.5540703017 1.2126654091
C -2.9273974014 1.4162475498 2.0805679527
C -1.8201686211 0.7140503763 1.6289114920
Cl -5.4316365711 2.4413388252 1.7449124839
C 1.9470038835 -0.8952916819 -0.3147347633
C 2.9430533867 -0.7991075114 0.8568268559
H 6.9616916166 1.7845892818 -2.4748089202
H 5.2887146038 2.1668367465 -2.0230680453
H 5.7143385676 0.5256405480 -2.5674821626
H 6.7152913483 1.8508093162 0.0242851358
H 7.1380016038 0.2121565929 -0.5342443333
H 1.6166115095 0.9628792185 2.3966950305
H 2.3618943759 2.4189865507 1.7007739828
H 0.1569348681 1.9224073625 0.5968882873
H 1.5090676480 1.8146593677 -0.5413217766
H -3.2047391777 0.5776748113 -2.5955698812
H -3.8695301757 -0.9072125544 -1.9488245944
H -2.0657199831 -1.3697126956 -3.5089486694
H -0.9267281064 -0.3802160586 -2.5907128236
H -0.4284268095 -5.0417395677 0.7284928850
H -1.5563078828 -5.6123968729 -1.4142822994
H -2.2028077108 -3.7526415565 -2.9679608934
H -4.8441250819 1.1204077235 -0.7098366360
H -2.9550681003 1.8331525744 3.0806476123
H -0.9785021566 0.5720668438 2.2994675273
H 1.7137535995 -1.9439843068 -0.5081682025
H 2.4350820529 -0.4822655827 -1.2094213105
H 2.4921791198 -1.2378062484 1.7556156944
H 3.8603161946 -1.3420052008 0.6345461647
