53
CONF11
C -1.5425630937 4.2028910801 -1.5616904566
C -1.2294398527 4.2536748887 -0.0795892024
O -0.9521999134 2.9218462577 0.4255587404
C 0.3075901268 2.4468318180 0.2600781699
O 1.2211138786 3.1357870508 -0.1837857581
C 0.3987785307 1.0510267214 0.6645757175
C 1.6062183131 0.4145476395 0.6520777123
N 1.6981797417 -0.8869300783 1.0547672826
C 0.6673704340 -1.5837784813 1.6362182366
C -0.5763283159 -1.0215816485 1.6987468421
C -0.8846543842 0.2902171972 0.9833282359
C -1.6687239728 0.0375988108 -0.3058066830
C -1.0618579977 -0.7328160494 -1.3062069287
C -1.6835714962 -0.9999778094 -2.5182062665
C -2.9562148204 -0.4904481236 -2.7648300248
C -3.5905069393 0.2759703338 -1.7950454084
C -2.9464318263 0.5292566944 -0.5852600694
Cl -3.8388610319 1.5105862878 0.5809839310
C -1.6528157970 -1.7068760272 2.4044190350
O -1.5784320084 -2.7565258396 3.0321849531
O -2.8228135373 -1.0240330267 2.2900315915
C -3.9580277136 -1.6144281138 2.9526179065
C 1.0699149220 -2.9217952113 2.1790446641
C 2.9278574206 1.0558671579 0.2616127080
O 4.0411058904 0.1997673194 0.4956896954
C 4.6585247132 -0.3286787096 -0.6870680679
C 3.8836282954 -1.4769242501 -1.3128672689
N 3.7302589570 -2.5707188447 -0.3400831499
H -1.8122897233 5.2034811097 -1.9139055323
H -2.3836210543 3.5291134475 -1.7513426576
H -0.6759347767 3.8573251070 -2.1318319824
H -2.0955022702 4.5849662661 0.4982396620
H -0.3790243007 4.9064648502 0.1343698035
H 2.5890875007 -1.3724399519 0.9085509259
H -1.5056408338 0.9064992276 1.6340895290
H -0.0678597834 -1.1284935241 -1.1158813550
H -1.1779457503 -1.6010092936 -3.2670087800
H -3.4591340966 -0.6860885149 -3.7062774545
H -4.5817205764 0.6789358647 -1.9711184655
H -4.1645117431 -2.6083395032 2.5464717170
H -3.7781916338 -1.6913470169 4.0283644693
H -4.7910501233 -0.9404545343 2.7523463655
H 0.3841872232 -3.7020434035 1.8456985737
H 2.0861023957 -3.1661192639 1.8616481374
H 1.0327878884 -2.9166411573 3.2719511766
H 2.8859778432 1.3786856757 -0.7854329332
H 3.0650062954 1.9586070469 0.8653040883
H 4.8063295835 0.4708417497 -1.4267683743
H 5.6441758224 -0.6807230621 -0.3614210960
H 2.8842068467 -1.1329750228 -1.6128222210
H 4.4105285172 -1.7698833041 -2.2358783884
H 4.6401950445 -2.9697672036 -0.1293504286
H 3.1767430710 -3.3189510718 -0.7443028060
