51
CONF85
O 3.3495730444 2.1554450739 -0.9524044068
C 3.4977308953 1.1226708314 0.0395455591
C 2.1456830999 0.5291390416 0.4390335035
C 1.1684962866 1.5648561267 0.9924417584
C -0.1705389533 0.9329026045 1.3327695612
C -1.0854449216 0.5111216420 0.1288974607
N -2.0886279253 1.4659522495 0.6647148481
C -1.3006577653 1.8904033893 1.7108516508
O -1.4729418833 2.7378053418 2.5687799080
C -3.3497064153 1.8170425721 0.1822025440
C -4.1872361116 2.6638293190 0.9215995477
C -5.4397257083 3.0037674264 0.4246660030
C -5.8368796480 2.4860803631 -0.7972346013
F -7.0647577093 2.8174154720 -1.2787245407
C -5.0326707790 1.6448791473 -1.5460296257
C -3.7769166407 1.3105164611 -1.0510486464
C -1.5256024989 -0.9190298837 0.0505440329
C -2.3584048729 -1.4788932079 1.0246705507
C -2.7267578548 -2.8157966916 0.9677600652
C -2.2559540426 -3.6201077063 -0.0733957020
O -2.6484155359 -4.9280145021 -0.0817918410
C -1.4249869634 -3.0772417514 -1.0545348715
C -1.0718627696 -1.7331487156 -0.9879065596
C 4.4578215168 0.0405923201 -0.4103317886
C 5.5503454732 -0.3081983370 0.3847696047
C 6.4266011664 -1.3227386145 0.0023736390
C 6.1848061355 -1.9734677803 -1.1939708359
F 7.0331515339 -2.9629734222 -1.5826173528
C 5.1150919551 -1.6581489243 -2.0164210349
C 4.2512714436 -0.6456213801 -1.6112827683
H 2.7740020872 1.8210112309 -1.6531613063
H 3.9342602250 1.6308517918 0.9074934404
H 1.7106662981 0.0290646452 -0.4388459252
H 2.3206173877 -0.2527414748 1.1888997381
H 1.5867584240 2.0251562783 1.8964969107
H 1.0142834638 2.3678258568 0.2618683015
H -0.0599884452 0.1223315840 2.0623020523
H -0.6803909952 0.8474565497 -0.8334335495
H -3.8573409061 3.0528148145 1.8767370816
H -6.1017253676 3.6592635415 0.9800828998
H -5.3792641942 1.2602554157 -2.4989732475
H -3.1311874809 0.6544902791 -1.6242744496
H -2.7327177962 -0.8606661247 1.8364554462
H -3.3785434464 -3.2474834649 1.7206231336
H -2.2635934937 -5.3772498729 -0.8467436877
H -1.0643919390 -3.7009371023 -1.8682364390
H -0.4322398284 -1.3128893450 -1.7597896936
H 5.7249166149 0.2186401821 1.3188403000
H 7.2795232065 -1.5987469953 0.6130227072
H 4.9659046961 -2.1953268777 -2.9468739459
H 3.4079677423 -0.3941596520 -2.2487093396
