40
CONF44
C 3.7219749568 -0.9444931321 -1.9201025176
O 4.1412304808 -0.4163899641 -0.6331378136
C 3.7576044454 -1.1233833381 0.4304764618
O 3.1234899661 -2.1577576375 0.3773978583
C 4.2281405834 -0.5379570594 1.7491694110
S 4.4595567453 1.2697422036 1.8266147847
C 2.8344181421 1.8729618612 1.4347693044
C 1.7041880637 1.0583225082 1.3475999048
C 0.4517674574 1.5659738909 0.9860733604
C 0.3599576809 2.9412441042 0.7470677574
C 1.4463717024 3.7881312497 0.8516125473
C 2.6772696591 3.2445161084 1.1905028393
Cl 4.0593859361 4.3169960943 1.3172689754
F -0.8430210852 3.4684370480 0.4188366867
N -0.6637753390 0.7291320174 0.9455081894
C -1.2318186923 0.5037793445 -0.1811972212
N -2.3991725020 -0.2111977037 -0.2993935092
N -2.6598771279 -0.6286185960 -1.6192704711
C -1.9257521979 -0.0188013650 -2.5870588468
O -2.0979942682 -0.0967057622 -3.7886504131
S -0.6272796173 0.9761010621 -1.7976869836
C -4.0332606588 -1.0942600192 -1.8783109844
C -4.4001904286 -2.1802869295 -0.8773888100
C -4.1871410677 -1.6669267077 0.5441296353
C -2.7480621789 -1.2103582597 0.7343351650
H 2.6313584915 -0.9948795204 -1.9612175712
H 4.1498954060 -1.9373549837 -2.0742306872
H 4.1042383094 -0.2391784406 -2.6560977873
H 5.2270453954 -0.9441952374 1.9525926662
H 3.5640812953 -0.8947575134 2.5398315723
H 1.7553297696 -0.0021089026 1.5621875062
H 1.3298929463 4.8496474706 0.6657238865
H -4.7169669070 -0.2381386674 -1.7922016949
H -4.0457932219 -1.4600536261 -2.9060147176
H -5.4455822422 -2.4597225139 -1.0378668231
H -3.7819855457 -3.0682781475 -1.0549089229
H -4.8660821720 -0.8298116355 0.7461736990
H -4.3958930801 -2.4518980431 1.2769447007
H -2.0508603838 -2.0575284939 0.6588661289
H -2.6066899228 -0.7199428321 1.6977577326
