36
CONF9
C -3.8527656869 -1.1230771094 -1.5130396309
C -3.1312071297 -1.7012585666 -0.3077832147
C -2.8892189597 -3.1936870785 -0.4157215661
O -1.8033404232 -1.0993454337 -0.2134895228
C -1.7309772301 0.1324154680 0.3247343954
O -2.6783691092 0.7120729273 0.8321894677
C -0.3677165552 0.6748946654 0.2770853253
C 0.5961729089 0.0690685786 -0.6785543610
O 0.3359909902 -0.2115695616 -1.8262980146
O 1.8105500218 -0.1148207211 -0.1072743905
C 2.8698227222 -0.6333099399 -0.9769950525
C 4.1737934123 -0.1662954219 -0.3618341786
C 2.7465900947 -2.1446890865 -1.0536041545
C -0.0517435104 1.7721085167 1.0311544489
S 1.5740982544 2.4629633459 1.0660292393
C 1.0557605008 4.0659814656 1.7940912580
C -0.0138394100 3.7523897012 2.8137455817
S -1.2387965433 2.6290705222 2.0158875850
H -3.2737035550 -1.3112354674 -2.4222307741
H -3.9971495267 -0.0463768409 -1.3989696970
H -4.8352700893 -1.5938209896 -1.6177773790
H -3.6742624085 -1.4586825879 0.6119874108
H -3.8464809272 -3.7196033306 -0.4755585498
H -2.3093947979 -3.4221191496 -1.3150713860
H -2.3429312304 -3.5634189350 0.4559254391
H 2.7233982936 -0.1935428193 -1.9690959789
H 4.2841198160 -0.5620976627 0.6524246498
H 4.2151922984 0.9249745907 -0.3171453388
H 5.0136721334 -0.5222802299 -0.9657370135
H 2.8494937192 -2.5845565354 -0.0566139715
H 3.5364137396 -2.5485979981 -1.6946719508
H 1.7799574809 -2.4305170044 -1.4741292989
H 0.6798844921 4.7209296264 1.0017782982
H 1.9425625383 4.5166011734 2.2512365842
H 0.4068990110 3.2604615734 3.6965580390
H -0.5572059120 4.6509702197 3.1236911102
