40
CONF44
C 3.2704699632 -0.5442106362 -2.0994329490
C 2.3686826240 0.6078246819 -1.7301112725
O 2.3168311531 0.6548082383 -0.2688529538
P 1.3190737903 1.6246946039 0.5065220008
S 0.2939502279 2.9300250700 -0.4874843928
O 2.3039852613 2.1646844353 1.6421770141
C 1.9920603286 3.3533120559 2.4339667267
C 0.9184665317 3.0872797517 3.4654186345
O 0.4387637990 0.5853087896 1.4507320370
C -0.5139602131 -0.2560466372 0.9551301516
C -1.3697221772 -0.8509597169 1.8784299382
C -2.3239814083 -1.7118633896 1.3582479611
N -2.4166473938 -1.9392270169 0.0312685369
C -1.5460493316 -1.3123160937 -0.7595912186
N -0.5743765540 -0.4762696600 -0.3451593995
C -1.6442203092 -1.5526794565 -2.2464653903
C -1.8523561287 -0.2328848324 -2.9982668749
C -0.3986620084 -2.2906606761 -2.7535625757
C -3.3065762150 -2.4263024128 2.2311101541
H 2.8763325426 -1.4854033325 -1.7060859480
H 4.2798078289 -0.3926514597 -1.7076223231
H 3.3272161638 -0.6193363838 -3.1897253783
H 1.3513108648 0.4679630813 -2.1054770213
H 2.7570315706 1.5650799777 -2.0913525677
H 2.9456083296 3.6056966096 2.9029300793
H 1.7050738695 4.1578730299 1.7488403946
H 1.1892043641 2.2393324312 4.1006165501
H -0.0453130612 2.8819161069 2.9913430616
H 0.8065620728 3.9747839535 4.0965319148
H -1.2841920601 -0.6425850494 2.9377082868
H -2.5192765292 -2.1929976960 -2.3958542258
H -2.7509665505 0.2840657985 -2.6477518938
H -1.9618493761 -0.4268995346 -4.0698526660
H -0.9983114855 0.4349552126 -2.8507306134
H -0.5000484799 -2.5058976146 -3.8218875174
H 0.4942578233 -1.6751442504 -2.6101346185
H -0.2533493431 -3.2369147978 -2.2231036595
H -4.3259400194 -2.1467666166 1.9466791912
H -3.2171993869 -3.5067741828 2.0811431330
H -3.1516922898 -2.1948123706 3.2864146656
