47
CONF132
C -4.1203546988 -0.6247434413 -1.0945575984
O -4.8261501631 -1.2049831116 0.0253653229
P -5.7607846919 -0.3099467490 0.9920276587
S -6.4700988493 1.3046800027 0.2012515099
O -6.7817747808 -1.3949628342 1.5719790091
C -7.9379919576 -1.7539643165 0.7845349234
O -4.8973020092 -0.1612984926 2.3590919528
C -3.6548026161 0.4742699936 2.2909172445
C -2.5134735238 -0.3021075231 2.1283534652
C -1.2682845759 0.3123791380 2.1007228879
C -1.1722954176 1.7017544858 2.2136521280
C -2.3301623865 2.4673116834 2.3746928734
C -3.5763596487 1.8535412549 2.4244954382
S 0.3963205090 2.5571634130 2.2438800654
C 1.4093207478 1.5370182696 1.1832661907
C 1.0253900104 1.2579642801 -0.1313181448
C 1.8498803784 0.5022596137 -0.9512269016
C 3.0666833497 0.0443021762 -0.4592020841
C 3.4703087627 0.3220424890 0.8391645857
C 2.6312112780 1.0657340056 1.6628501962
O 3.8365776879 -0.7513601282 -1.3020221515
P 5.3727454774 -0.3844944040 -1.6868019107
S 5.7689556011 1.4760798872 -2.0029380737
O 5.6130128187 -1.4160592772 -2.8929390005
C 5.2078820754 -1.0553864963 -4.2324914904
O 6.1528988803 -1.1310386156 -0.4985798157
C 7.5880129962 -0.9774461282 -0.3949320256
H -4.8050190412 -0.0426801904 -1.7168640460
H -3.7154316894 -1.4688795613 -1.6550107499
H -3.3064979351 0.0152665770 -0.7404353277
H -7.6291198200 -2.2550653146 -0.1385774785
H -8.5146435353 -2.4406911507 1.4046077212
H -8.5298566476 -0.8645231173 0.5495617281
H -2.6100496479 -1.3783497279 2.0362541037
H -0.3722194602 -0.2885699105 1.9908720825
H -2.2583493428 3.5472999629 2.4523259210
H -4.4846839089 2.4332627790 2.5391877710
H 0.0817812230 1.6370696480 -0.5092365766
H 1.5718911626 0.2787891040 -1.9751248409
H 4.4188969302 -0.0539920751 1.2047826123
H 2.9233350301 1.2729613051 2.6866280842
H 4.1168636028 -0.9892682519 -4.2925643161
H 5.6578146223 -0.1011729545 -4.5215661435
H 5.5671311869 -1.8576913818 -4.8776481811
H 8.0803615333 -1.4431681875 -1.2540192594
H 7.8528127009 0.0824806919 -0.3378062649
H 7.8756166922 -1.4917872129 0.5224429281
