31
CONF29
C -3.5121939546 -0.1712408580 1.4653634442
C -3.4125836153 -1.5695591014 1.4164548993
C -2.5220819736 -2.1811484954 0.5544509032
C -1.7102523702 -1.3905395223 -0.2710233921
C -1.8137098861 0.0091621244 -0.2227961430
C -2.7205513123 0.6171395799 0.6490841887
C -0.9567794461 0.8002923762 -1.0907627201
N -0.0683770296 -0.0116677726 -1.8300895728
N -0.0441404157 -1.3808685152 -1.8552748020
N -0.8281584007 -2.0443020692 -1.1250458124
C 0.9610079960 0.6090854905 -2.6320249271
S 2.7117205726 0.3417958530 -2.0203546100
P 2.5743575509 0.4940717607 0.0888093299
S 4.3628872530 0.6073538574 0.8062260410
O 1.5047990187 1.6520166948 0.4008212085
C 1.8604002137 3.0281366425 0.1399808671
O 1.6276551462 -0.7084049496 0.5970209064
C 2.1505784565 -2.0573529187 0.5706954367
O -0.9755777570 2.0144283364 -1.2079781859
H -4.2162864587 0.2931281224 2.1476387222
H -4.0422202915 -2.1751754492 2.0599237542
H -2.4293017910 -3.2600277906 0.4941282517
H -2.7794425455 1.6995379931 0.6676620376
H 0.9622939821 0.1792273958 -3.6372993668
H 0.7468247423 1.6770529232 -2.6657516502
H 0.9381635698 3.5946746866 0.2652678808
H 2.2304426064 3.1444163528 -0.8842768413
H 2.6245522377 3.3556078219 0.8503149823
H 2.3624707293 -2.3595161795 -0.4598147882
H 3.0538681042 -2.1226987208 1.1838148195
H 1.3596357669 -2.6846259710 0.9823350307
