45
CONF9
C 1.9021705446 -2.9932442441 0.7516668994
O 2.5658913124 -2.2125676189 1.7760962079
C 2.6424615722 -0.8897464019 1.6008071476
C 3.3107989280 -0.1436084418 2.5627773125
C 3.3668817439 1.2285836016 2.3261236118
O 4.0106531029 1.9778379053 3.2285277892
C 4.0779491681 3.4052085986 2.9963445250
N 2.8148903995 1.8138722213 1.2579779315
C 2.1965561676 0.9880742887 0.4119705481
N 1.6184657461 1.6230028403 -0.6850207269
C 0.8345295613 1.1319682690 -1.7158197677
O 0.3432294615 1.8840294646 -2.5478606474
N 0.6598640349 -0.2402224405 -1.7348991354
S -0.5189423699 -0.9446774127 -2.7212748493
O -0.1678389032 -0.7262104658 -4.1236339107
O -0.6545428003 -2.3086357193 -2.2047931449
C -2.0131268009 -0.0528542941 -2.3650895874
C -2.7875552822 -0.0967826572 -1.2013783922
C -3.8968768199 0.7082038889 -1.5084750682
N -3.8124248647 1.2066220839 -2.7428660240
N -2.6669519086 0.7427455738 -3.2574580115
C -2.2911597049 1.1376978573 -4.6147524375
C -2.5447214574 -0.7471230821 0.0652980908
N -3.5281707915 -1.0258482399 0.9326621245
N -2.8562690651 -1.5491851594 1.9444191083
C -3.4980247271 -2.0327798191 3.1603117403
N -1.5470401108 -1.6051085651 1.7480681642
N -1.3286923766 -1.0959260122 0.5580071336
N 2.0840462767 -0.3359115966 0.5155256610
H 0.8565847277 -2.6897738784 0.6558649086
H 1.9678795375 -4.0233256100 1.0998887256
H 2.4179409708 -2.8820505054 -0.2060758036
H 3.7637772408 -0.5985172147 3.4332397527
H 3.0744217109 3.8364328394 2.9694074835
H 4.5999643832 3.6165617662 2.0601523450
H 4.6392488323 3.7986002648 3.8431199113
H 1.7320058548 2.6284994199 -0.7057477529
H 0.9427303121 -0.7581840804 -0.8866268286
H -4.7370272955 0.9504521937 -0.8724728605
H -3.0211991759 1.8807908719 -4.9331570268
H -1.2885677380 1.5661915407 -4.6082247872
H -2.3189419570 0.2742713159 -5.2820969631
H -2.7140104885 -2.3868793485 3.8285136944
H -4.0516632210 -1.2127659979 3.6219843666
H -4.1791940323 -2.8477175924 2.9063331453
