37
CONF10
C 3.5412975465 -2.1826469032 1.7894256382
C 4.0013287587 -0.8153418043 1.3216924779
C 4.1997434114 0.1738475384 2.4497936482
O 2.9505209727 -0.2302857503 0.4646171171
C 2.9220525716 -0.6093260465 -0.8202714151
O 3.7358358798 -1.3410647732 -1.3480946965
C 1.7282406823 -0.0370491608 -1.5097081942
C 1.7429218672 0.3836761390 -2.8464655244
C 0.5936571455 0.8619460260 -3.4619603502
C -0.5803600267 0.8900495875 -2.7324098611
C -0.6639897153 0.4627842823 -1.4080800167
C 0.5178571418 0.0209147301 -0.8145159027
C -1.9148799998 0.4994355346 -0.6494134623
N -1.9463024910 1.0483583916 0.5757951341
N -3.1917998822 0.8941885095 1.0339622403
C -3.9848432879 0.2577873594 0.1304518270
C -3.1823787502 -0.0161517066 -0.9688357425
Br -3.6617787957 -1.0107880818 -2.4888142388
C -5.4182775303 -0.1042153917 0.3250852496
F -5.9630468880 0.4813227149 1.4089199152
F -5.5780472016 -1.4444117847 0.4700714756
F -6.1609922066 0.2595813761 -0.7464186581
C -3.5235124322 1.4176921247 2.3605867030
F -1.6758527328 1.3981735527 -3.3259774533
Cl 3.2151872884 0.4104442180 -3.7878915906
H 3.3719942882 -2.8542289029 0.9439209567
H 4.3112773147 -2.6226557549 2.4301396210
H 2.6169557813 -2.0932049880 2.3686987514
H 4.9063705060 -0.8976117749 0.7126770273
H 3.2780589284 0.2881798866 3.0287463280
H 4.5028343870 1.1508036030 2.0642018651
H 4.9841676359 -0.1944568637 3.1169591679
H 0.6067285963 1.2285998038 -4.4812764409
H 0.4885408555 -0.3166125900 0.2148033532
H -3.9353231223 0.6227940690 2.9848317697
H -4.2414874078 2.2360535700 2.2762537731
H -2.5926994858 1.7834188634 2.7921945094
