42
CONF4
C 0.1923620061 -2.8117797539 0.1420658788
C -0.7824177095 -2.1214937558 -0.8075421644
C -2.2297456793 -2.6270909629 -0.5864098400
C -2.7600730582 -1.7053990835 0.4824955916
C -1.9992145383 -0.5367630948 0.5319550002
C -0.9064892118 -0.5918342364 -0.5080058544
N 0.3015490440 0.0744542949 -0.0699593197
C 1.3081679215 0.4402665333 -0.8970100879
N 2.4239948864 0.9187550128 -0.2954975212
C 3.3830049646 1.2592248069 -1.1441391342
N 3.3347297972 1.2059023333 -2.4784481097
C 2.1610905142 0.7409298258 -2.9548205979
N 1.1226457675 0.3180499070 -2.2200600301
N 2.0195372037 0.7085130369 -4.3038564943
C 4.6609778149 1.8284662578 -0.5656408850
C 4.5003040148 3.3005668887 -0.2356672416
F 5.0008281204 1.1395012760 0.6041078387
C -2.2955548170 0.4784176783 1.4273034488
C -3.3745180751 0.3305393342 2.3088281649
C -4.1325112157 -0.8418837806 2.2508939741
C -3.8357629482 -1.8600937754 1.3434324517
C -3.6885108734 1.4084876945 3.3107539402
H 0.2223972203 -3.8861280902 -0.0629384781
H -0.1154122732 -2.6773512677 1.1860804585
H 1.2078426180 -2.4203207244 0.0317233995
H -0.4538402981 -2.2727759187 -1.8403022070
H -2.8218668393 -2.5164567561 -1.5052821516
H -2.2658672475 -3.6842709372 -0.3025653709
H -1.2423208427 -0.0871868332 -1.4241065755
H 0.5361238210 0.0560786779 0.9111569628
H 1.2380686348 0.2055145633 -4.6864058143
H 2.8427759585 0.8433946086 -4.8643648127
H 5.4688448729 1.6675167031 -1.2881475821
H 4.2559475402 3.8603444578 -1.1431962273
H 3.6931575242 3.4275268592 0.4907943215
H 5.4309599792 3.6921621614 0.1830464428
H -1.6980228030 1.3873290961 1.4485436043
H -4.9692791833 -0.9634010462 2.9332985138
H -4.4391359052 -2.7633411760 1.3221595481
H -2.9620306118 1.4039616665 4.1315893067
H -3.6509424632 2.4002586633 2.8497089160
H -4.6817921489 1.2714084005 3.7451222562
