51
CONF80
C 5.5454646477 1.3848482340 2.1052574548
C 5.5116236280 0.6305681666 0.8043698201
C 6.6313635436 0.2319914681 0.1516221227
C 8.0348040667 0.4612672112 0.6047432714
O 8.4095685111 -0.6056205241 1.5159227756
C 4.2215305285 0.3067327992 0.2327444962
C 3.0122798930 0.6270341782 0.7672531987
C 1.7737208907 0.2759748282 0.1473905511
C 0.5083475302 0.5533880772 0.5927183446
C 0.2252644937 1.3066417240 1.8613825584
C -0.6085022185 0.0986413345 -0.2018161123
C -1.9168132986 0.2766257283 0.1051897419
C -3.0572223666 -0.1942180861 -0.6767938785
C -3.0951135357 -0.1445410866 -2.0333579648
C -2.0732163073 0.5488121194 -2.8914048912
C -4.2110026830 -0.7589724527 -2.8380726185
C -5.0791123041 -1.7152234121 -2.0346873175
C -5.4520393385 -1.0437526329 -0.7223197422
C -4.2243011819 -0.7518100456 0.1590714034
C -4.6677703932 0.2658714660 1.2292028011
C -3.7693798973 -2.0390373608 0.8725254209
H 6.5633735244 1.5752430538 2.4447219911
H 5.0232455033 2.3437316239 2.0134993947
H 5.0321785627 0.8135539269 2.8867658931
H 6.5071694317 -0.3395274810 -0.7668062116
H 8.7053422221 0.4559563701 -0.2644957731
H 8.1399598102 1.4322357179 1.1069021906
H 9.3493624753 -0.4961831905 1.7110304353
H 4.2395694851 -0.2418401356 -0.7094261124
H 2.9839341951 1.1729902266 1.7059422857
H 1.8545374888 -0.2761606135 -0.7897823206
H 1.1333960460 1.5966474418 2.3887050221
H -0.3502487284 2.2151235434 1.6497897475
H -0.3813872729 0.6981547000 2.5421936142
H -0.3516253327 -0.4495074138 -1.1063442747
H -2.1488054698 0.7535429677 1.0539573657
H -1.4639289331 1.2627555805 -2.3343552538
H -2.5860775759 1.0766163537 -3.7053623950
H -1.3964858575 -0.1718906968 -3.3693081815
H -4.8302467296 0.0488504108 -3.2599936403
H -3.7672461659 -1.2673225396 -3.7058111468
H -5.9765432238 -1.9852761253 -2.6021369773
H -4.5291715381 -2.6447104766 -1.8425837836
H -6.1571984894 -1.6546840809 -0.1454946336
H -5.9593201479 -0.0948690294 -0.9477592840
H -5.5957531261 -0.0876679637 1.6924847052
H -3.9307563346 0.3867166752 2.0281389032
H -4.8621770753 1.2464687444 0.7811168493
H -3.5070134054 -2.8215488775 0.1536567282
H -2.8879370011 -1.8463529859 1.4931655363
H -4.5696425565 -2.4162684555 1.5197551853
