70
CONF8
C -3.0245943259 -0.5232670828 -0.1475810412
C -4.3965228145 0.1424643310 -0.3861232519
C -5.4281391830 -0.6118772064 0.3881894705
C -6.7751356372 -0.8426563530 0.2564000145
N -7.2120947892 -1.6195520020 1.3259158472
C -6.1501365863 -1.9045568484 2.1527572468
C -6.0198263823 -2.6427913126 3.3318685334
C -4.7422088854 -2.7212297287 3.8810986547
C -3.6162930678 -2.0995457719 3.2948877783
C -3.7444988263 -1.3566388746 2.1253009301
C -5.0254070501 -1.2770202965 1.5767741228
C -2.6488942432 -0.6333227509 1.3656631580
C -1.2848681675 -1.3170535325 1.5305774249
C -0.2187580213 -0.6548088089 0.6580583112
C -0.7152908384 -0.6311107315 -0.8104444664
N -1.9676655758 0.1070270241 -0.9617105721
C -1.8011381992 1.5572317932 -0.7410136784
C -0.7419950459 2.1318126505 -1.6323614875
C 0.2691968017 2.8818402837 -1.1995275676
C 1.0908433789 -1.4068479786 0.6769180781
O 1.1200352996 -2.6350168288 0.5764265962
N 2.2632830007 -0.6759917812 0.6359447293
C 3.5170885378 -1.4016647191 0.3304732733
C 3.6125376281 -1.9089113605 -1.1097244467
C 3.3434200354 -0.8644488988 -2.1865660958
N 4.1505243451 0.3606144286 -2.0664172158
C 5.5878067021 0.0914393862 -2.1743453957
C 3.7384791431 1.3160591109 -3.1009859269
C 2.3470861485 0.6723239178 1.1385690385
O 1.7592305231 1.0097608768 2.1697980630
N 3.1296477291 1.4793580396 0.4119392399
C 3.4670337223 2.8199126504 0.8847416346
C 4.1979687004 3.5899851695 -0.2036702728
H -3.1036919379 -1.5580752251 -0.5185116251
H -4.3697441527 1.1823269354 -0.0355498397
H -4.6086048702 0.1656081953 -1.4607328137
H -7.4758340805 -0.5256273235 -0.5036827545
H -8.1587246445 -1.9390602671 1.4521432108
H -6.8646303731 -3.1375427641 3.8004231798
H -4.6025192031 -3.2895064824 4.7961100078
H -2.6506713685 -2.2153044319 3.7769217753
H -2.5784658565 0.3907455616 1.7655418293
H -0.9745736239 -1.2883209556 2.5809565572
H -1.3782139353 -2.3727791974 1.2454921996
H -0.0675592340 0.3744128022 0.9841299535
H 0.0455417675 -0.1811514143 -1.4564402153
H -0.8784869411 -1.6639832575 -1.1453674351
H -2.7521687374 2.0409811995 -0.9943401065
H -1.5746790143 1.8244117549 0.3056812575
H -0.8486962388 1.9195335179 -2.6968346196
H 0.4002748369 3.0918363640 -0.1400713705
H 0.9954218491 3.3086616826 -1.8847958905
H 3.5943663820 -2.2535058621 1.0149650075
H 4.3430873306 -0.7236968967 0.5548883407
H 4.6082301487 -2.3501837485 -1.2328314458
H 2.8947516628 -2.7210272836 -1.2587927587
H 2.2906238425 -0.5582746508 -2.1343757509
H 3.4917118353 -1.3331496776 -3.1779597582
H 5.9255543962 -0.5429299065 -1.3504129119
H 6.1349812176 1.0376254160 -2.1196473182
H 5.8454104421 -0.4054462785 -3.1271493123
H 4.3172957635 2.2394297538 -3.0031989872
H 3.8904803809 0.9139775571 -4.1184659007
H 2.6763842661 1.5551358273 -2.9777992347
H 3.5676157678 1.1238239674 -0.4624868946
H 2.5471311862 3.3429690647 1.1702085649
H 4.0889559418 2.7477145359 1.7878809346
H 3.5575561674 3.7273443826 -1.0803446760
H 5.1066524689 3.0651654777 -0.5173786013
H 4.4845210144 4.5763445204 0.1699973747
