30
CONF4
O -2.3669288466 -0.7837871556 -2.3686492610
C -2.4778727707 0.5063901928 -1.9957648042
O -2.1931612458 1.4340150611 -2.7238572459
C -3.0553128631 0.6475803485 -0.6020354314
C -2.5238742506 -0.3417156987 0.4005848464
C -1.1511652451 -0.3597491412 0.7131825317
N -0.3099869637 0.5602372813 0.0538469469
C 1.0792990126 0.5415255311 0.1960936870
C 1.8670604168 -0.5043237161 -0.3182617620
Cl 1.0881137293 -1.8183384885 -1.1737385163
C 3.2496536894 -0.5202513297 -0.1995307018
C 3.8963850193 0.5480670990 0.4115647972
C 3.1639841972 1.6208511317 0.9057369814
C 1.7802660623 1.5976599733 0.8049385721
Cl 0.8670153508 2.9441160128 1.4676410856
C -0.6599981832 -1.2822075738 1.6399206954
C -1.5203256546 -2.1925410672 2.2443688719
C -2.8793193885 -2.1828149376 1.9445900744
C -3.3682272218 -1.2530697253 1.0296826417
H -2.0129226145 -0.8058609006 -3.2741444341
H -2.8945071558 1.6859788348 -0.2932248093
H -4.1390280292 0.5134014053 -0.7018247611
H 3.8129674859 -1.3521146133 -0.6058408750
H 3.6568260136 2.4609641234 1.3807482259
H 0.3954376996 -1.2824523723 1.8922621874
H -1.1225155514 -2.9043187795 2.9609714335
H -3.5533707966 -2.8894477460 2.4171196204
H -4.4268781226 -1.2377242745 0.7857535049
H -0.6926947877 1.4955357029 -0.0038337952
H 4.9774139285 0.5478999739 0.4958068168
