41
CONF115
O 8.5285138714 -1.2664682156 -1.2496097525
N 8.1120573014 -0.2673574177 -0.6551999700
O 8.8549784666 0.6146528884 -0.2137384973
C 6.6812581298 -0.1218960391 -0.4680678173
C 6.1922071467 1.0007785075 0.2026012583
C 4.8281801647 1.1288769349 0.3759116658
C 3.9417339843 0.1522786461 -0.1171871990
C 4.4626781343 -0.9757866735 -0.7875252012
C 5.8240717898 -1.1115049193 -0.9617546901
N 2.5876836657 0.3950492399 0.1210811228
N 1.7981378906 -0.4628383596 -0.4102214307
C 0.4563952531 -0.2726370146 -0.1887156729
C -0.1176914486 0.7663337508 0.5844377541
C -1.4751371193 0.8652643250 0.7344587091
C -2.3656211682 -0.0659450449 0.1140705952
C -1.7777646273 -1.1111297510 -0.6565100151
C -0.4147183886 -1.2032195507 -0.7938403280
N -3.7103906505 0.0347275894 0.2470147643
C -4.3725826352 1.1350663374 0.9476576548
C -4.7656615757 0.7725692368 2.3801129526
O -3.6459508199 0.4483094792 3.2061850618
C -4.6213134991 -0.9348825568 -0.3774307638
C -4.9087066321 -0.6035569118 -1.8402151642
H 6.8749347925 1.7528379770 0.5769110946
H 4.4182922961 1.9898387911 0.8935789006
H 3.7888887892 -1.7366789967 -1.1610413828
H 6.2338230558 -1.9737455671 -1.4730978076
H 0.5272906453 1.4888791827 1.0707180140
H -1.8641239290 1.6629517240 1.3516468210
H -2.3978255064 -1.8427893939 -1.1561960415
H 0.0167236536 -2.0030824648 -1.3883276747
H -3.7489529354 2.0313944652 0.9358214892
H -5.2873853486 1.3831841954 0.3951053726
H -5.4067008901 -0.1149376571 2.3774390406
H -5.3438055849 1.6078020643 2.7995135040
H -3.1758343405 1.2664493474 3.4095990464
H -4.2134769694 -1.9437320520 -0.2708723650
H -5.5524590571 -0.9156860526 0.1960669463
H -3.9947169482 -0.6262311624 -2.4401378534
H -5.3557974220 0.3911899373 -1.9281252115
H -5.6112312488 -1.3343296334 -2.2514769559
