37
CONF1
C -2.6124660312 2.8876964188 -0.5792195344
N -2.1777412481 1.5205983133 -0.3682348543
C -1.3733950642 1.1763734948 0.6659146748
O -1.0266046263 1.9447328884 1.5566646955
C -0.8917118121 -0.2588311768 0.6605672310
N -1.4524900688 -1.0447944786 -0.1881503500
O -0.9630705930 -2.3333198442 -0.1495390736
C -1.6569429081 -3.1292415434 -1.1185304544
C 0.1665737617 -0.6383187218 1.6173569714
C -0.0706369943 -0.5325329770 2.9905027403
C 0.8856044439 -0.9320980181 3.9148804652
C 2.1090497222 -1.4278863703 3.4735961702
C 2.3806845675 -1.5050169298 2.1134481065
C 1.4180390066 -1.1063850281 1.1933364343
O 1.7426555957 -1.2403268440 -0.1404913079
C 1.5012641669 -0.1911561146 -1.0029845486
C 1.5420492020 1.1406977336 -0.5968282781
C 1.3007864931 2.1391728090 -1.5352192332
C 1.0369035497 1.8194363765 -2.8638182412
C 1.0219284209 0.4823682704 -3.2567034714
C 1.2513958593 -0.5275128879 -2.3304107722
H -1.9717064093 3.4068242736 -1.3046131291
H -3.6441816077 2.9033892919 -0.9434228890
H -2.5581034751 3.4184266549 0.3729157447
H -2.3251762407 0.8286729392 -1.0867199146
H -1.5159596505 -2.7209554080 -2.1250292414
H -2.7252627837 -3.1828046851 -0.8826352772
H -1.2071187806 -4.1212281429 -1.0486365322
H -1.0244386258 -0.1388116183 3.3221060001
H 0.6766647445 -0.8526210185 4.9760599055
H 2.8629018438 -1.7402669150 4.1888778855
H 3.3347008456 -1.8637676907 1.7432865762
H 1.7330503766 1.3916075617 0.4407882629
H 1.3220832866 3.1764312824 -1.2160898146
H 0.8528696681 2.6045412837 -3.5893704089
H 0.8245402312 0.2216893957 -4.2917946724
H 1.2332608370 -1.5747830827 -2.6118598758
