60
CONF15
C -1.3377775986 1.4649426950 -1.2562868389
Si -1.3769887860 1.7937242442 0.5775508844
C -2.4486896025 3.2570612525 1.0027924000
O 0.1487685210 2.0522851598 1.1481363158
Si 1.5719460477 2.7630076867 0.7174376974
C 2.7727157958 2.4605403344 2.1079431277
C 1.2893476606 4.5743258850 0.3877981703
O 2.1183330494 2.1002152672 -0.6878833829
Si 2.9136102419 0.8264075730 -1.3643384644
C 3.2970274646 1.2958629181 -3.1226849828
C 4.4521758025 0.4147807869 -0.3930904392
O 1.9098635920 -0.4774430910 -1.4100773154
Si 1.3765606498 -1.7930768530 -0.5768424919
C 1.3355644663 -1.4620172007 1.2565299105
C 2.4493302504 -3.2564355390 -0.9994667230
O -0.1485962625 -2.0531340800 -1.1482934851
Si -1.5717162504 -2.7640401138 -0.7178488892
C -2.7719050969 -2.4633289325 -2.1092996193
C -1.2880827319 -4.5749596649 -0.3867803026
O -2.1195180301 -2.1005640909 0.6865022385
Si -2.9141110114 -0.8264940945 1.3633513347
C -3.2974696473 -1.2958144649 3.1217121122
C -4.4521981579 -0.4145592031 0.3915261394
O -1.9100732303 0.4770590380 1.4092821235
H -0.7183993554 0.5902960006 -1.4810417416
H -2.3466267422 1.2864426350 -1.6446176428
H -0.9182744577 2.3265799061 -1.7886643065
H -3.4834147754 3.0858836733 0.6849638121
H -2.0860112983 4.1620762724 0.5026096198
H -2.4486422975 3.4400940213 2.0829277862
H 3.7670428327 2.8460506564 1.8582918737
H 2.8642166996 1.3901918153 2.3217074085
H 2.4323029240 2.9610898032 3.0212077389
H 2.2273269988 5.0796649956 0.1331971307
H 0.5935133890 4.7103982625 -0.4480951006
H 0.8635281925 5.0675459406 1.2684052656
H 3.9393772534 2.1823333999 -3.1585768003
H 2.3751515884 1.5204807060 -3.6705393634
H 3.8121394585 0.4801964539 -3.6412103763
H 4.2151018934 0.0907362076 0.6253530950
H 5.0019470581 -0.3942490942 -0.8875878260
H 5.1146275751 1.2847264477 -0.3262147847
H 2.3439696771 -1.2826364356 1.6455181943
H 0.9161853400 -2.3233962014 1.7894309075
H 0.7155457243 -0.5874331448 1.4799075407
H 2.4498337372 -3.4407552459 -2.0793890443
H 3.4838302986 -3.0842880979 -0.6814294150
H 2.0869465663 -4.1610875916 -0.4984321518
H -3.7662700626 -2.8486647604 -1.8594735635
H -2.8634966287 -1.3932684380 -2.3244623889
H -2.4311570335 -2.9649632879 -3.0218350950
H -0.8609149691 -5.0681383321 -1.2667573114
H -2.2257780555 -5.0811564371 -0.1328248977
H -0.5929328688 -4.7099412870 0.4498639906
H -3.9398690256 -2.1822371796 3.1579293124
H -2.3754941348 -1.5203049781 3.6694468300
H -3.8124735107 -0.4800123737 3.6401251172
H -5.0020136234 0.3951263762 0.8848265811
H -5.1149654379 -1.2842746572 0.3247434872
H -4.2139698662 -0.0914505435 -0.6269728010
