32
CONF6
C -3.6871935867 -0.6225360650 0.3789627575
C -3.6869121133 0.7169671690 0.1220175451
C -2.4854991712 1.4292481745 -0.1182530962
C -1.2589159556 0.7144509289 -0.0827884066
C -1.2577855839 -0.6942008552 0.2006973728
C -2.4852841562 -1.3723402713 0.4262700631
N -2.5905778922 -2.7126813584 0.6517782995
C 0.0010560423 -1.4251418379 0.2737886401
O 0.0036947729 -2.6620942835 0.5470876068
C 1.2574871516 -0.7251147790 0.0370834591
C 2.4891604536 -1.4245549261 0.1413798067
C 3.6924525364 -0.7013626421 -0.0539366949
C 3.6881632575 0.6257235835 -0.3684618207
C 2.4803466753 1.3529428512 -0.5139079322
C 1.2530817976 0.6738188550 -0.2909488504
C -0.0056023343 1.4056878437 -0.3593667575
O -0.0098634998 2.6384186843 -0.6506936818
N 2.5763941381 2.6605472707 -0.8900585797
N 2.5940399017 -2.7611608782 0.3903651300
N -2.5845026593 2.7732131499 -0.3312926971
H -4.6270745059 -1.1392557605 0.5530223965
H -4.6262313817 1.2626984782 0.0983436410
H -1.7336891596 -3.2136901754 0.8424937137
H -3.4702453597 -3.0676691580 0.9901397835
H 4.6365725348 -1.2301404788 0.0443150947
H 4.6287630906 1.1486158418 -0.5189984469
H 1.7318128173 3.2133602749 -0.8301362921
H 3.4755492063 3.1077876417 -0.8097803556
H 1.7527536560 -3.2387670872 0.6838422933
H 3.4967001183 -3.1224919587 0.6536645299
H -1.7544994187 3.2416966532 -0.6686234683
H -3.4941513565 3.1480250883 -0.5480052541
