50
CONF18
C 7.1703682719 1.0217268978 0.0248015458
C 6.1949270521 0.5091929188 1.0635668683
O 4.9280082807 0.1361247698 0.4548674899
C 4.0613336511 1.1547766622 0.2148423227
O 4.2616484370 2.3123280072 0.5661466198
N 2.9669651377 0.7369196988 -0.4863766898
C 1.8151454717 1.6321412363 -0.5705503004
C 0.7855251214 1.3013919134 0.5265883850
C 0.4076839049 -0.1545681448 0.4649326202
C -0.8566649939 -0.5945926866 0.3087709838
C -2.0515499112 0.2908668787 0.3195782625
C -3.0179902249 0.3107689026 -0.7053365710
C -2.9729274559 -0.4961123331 -1.9905337162
C -1.7781285936 -1.4290164675 -2.2210222381
C -1.6414745663 -2.4513278072 -1.1327767746
C -1.1762819322 -2.0384366027 0.1253353051
N -1.0362401246 -2.8680689568 1.1687870794
C -1.3555880265 -4.1576792925 0.9856469867
C -1.8244450606 -4.6649913304 -0.2200329540
C -1.9678733662 -3.7936981072 -1.2955303428
C -4.1310225850 1.1508637913 -0.5653214149
C -4.2854044552 1.9404559983 0.5602053084
C -3.3561040052 1.9233864740 1.5922959608
C -2.2556743867 1.0912981047 1.4562408124
Cl -5.7010485577 2.9833833258 0.6914597264
C 1.5970322604 -1.0783224023 0.4678314672
C 2.6001562418 -0.6731873111 -0.6272250845
H 7.3351232763 0.2719937473 -0.7545693861
H 8.1306280774 1.2374715641 0.5040662288
H 6.8015252145 1.9413348609 -0.4369903144
H 6.0112019723 1.2485373660 1.8473971255
H 6.5501112755 -0.4180070582 1.5193324501
H 2.1547590585 2.6644321895 -0.4810482966
H 1.3542903380 1.4971576427 -1.5569879713
H 1.2396118098 1.5288945982 1.5014567465
H -3.0290724986 0.2079324029 -2.8299393026
H -3.8933622146 -1.0929922948 -2.0382359924
H -1.9179934619 -1.9282109920 -3.1847412463
H -0.8562946700 -0.8387382995 -2.2859588275
H -1.2301279539 -4.8115841704 1.8467606321
H -2.0685518483 -5.7178729910 -0.3133419548
H -2.3240346928 -4.1536879717 -2.2571853223
H -4.8762621460 1.1812187531 -1.3541446500
H -3.4913899318 2.5311309484 2.4794007109
H -1.5279223392 1.0446534630 2.2601618815
H 1.3030662385 -2.1194206828 0.3198163300
H 3.4909866169 -1.2981996919 -0.5877456774
H 2.1346679362 -0.7987552445 -1.6132797234
H -0.0838635302 1.9504579820 0.4019071622
H 2.1072965367 -1.0101470919 1.4392611610
