28
CONF21
O -2.0452032485 0.7542843206 2.0746685472
C -2.7537027339 1.0750723713 0.8812724861
C -2.2708589734 0.2953891431 -0.3278344244
O -0.9345994606 0.7501895063 -0.6832393402
C -0.0589680075 -0.3675522348 -0.7468063981
C -0.6786954526 -1.4496625516 0.1351373880
C -2.1632576345 -1.2299505849 -0.1201394515
O -2.4984681096 -1.9474404591 -1.3170798395
N 1.3053278367 0.0626402103 -0.3950780970
C 2.2969900006 -0.0622188164 -1.3407355989
C 3.5839915675 0.2805798648 -1.1213450446
C 3.9753195592 0.8205675090 0.1525794139
O 5.1058695647 1.1704857075 0.4841644651
N 2.9083188371 0.9368437592 1.0546744319
C 1.5885363121 0.5969946917 0.8601990053
O 0.7527458105 0.7629071650 1.7440320617
H -1.0939393011 0.8588203211 1.8897320288
H -3.8079850214 0.8299160562 1.0537842993
H -2.6877351145 2.1503590344 0.6541603694
H -2.9399895071 0.5068904142 -1.1734108563
H 0.0175186530 -0.7248108194 -1.7815526554
H -0.4431375037 -1.2802134576 1.1859973353
H -0.3568122371 -2.4510753461 -0.1575754701
H -2.7877029889 -1.5613149537 0.7179309198
H -3.4341839504 -1.7949063882 -1.5025620203
H 1.9719657138 -0.4680027850 -2.2924267374
H 4.3287952996 0.1608559524 -1.8959858524
H 3.1198606827 1.3243529888 1.9674390184
