65
CONF83
C 5.2020301623 -4.6391478924 -4.8729206007
O 5.7915053172 -3.4503709993 -4.3354879858
C 5.2368428144 -2.9336641593 -3.1979772366
C 5.8382150686 -1.7713468404 -2.7006778299
C 5.3449493613 -1.1740520974 -1.5507445588
C 4.2479250140 -1.7082043168 -0.8621891734
C 3.6665287605 -2.8674032270 -1.3710905755
C 4.1447350801 -3.4868795813 -2.5276034635
C 3.6999713049 -1.0165923144 0.3578556997
C 2.9092056306 0.2546664929 0.0156015445
N 1.7512929327 0.0165258065 -0.8499391795
C 1.2494805802 1.2891430151 -1.3792203397
C 0.0814138774 1.0673744993 -2.3385418716
C -1.0611805904 0.2885766175 -1.6858814796
C -0.4980585487 -0.9882528107 -1.0480293558
C 0.6805053816 -0.6848444772 -0.1300915201
N -1.7388559627 1.1534921572 -0.7054690358
C -2.9097979912 0.7530173219 -0.1387321139
N -3.7155406678 -0.1881516227 -0.6073700003
C -4.7945469058 -0.1915647762 0.2637434949
C -5.9410992934 -0.9837774937 0.2612177074
C -6.8776870244 -0.7907623485 1.2773384624
C -6.6810324847 0.1688420145 2.2785605196
C -5.5392945593 0.9743746753 2.2974917281
C -4.6159963665 0.7774022118 1.2809497495
N -3.3990409902 1.3803937932 0.9952622163
C -2.7162022906 2.4091873826 1.7639235832
C -1.4417981136 1.9040218969 2.4085654267
C -1.4101219042 0.6572571536 3.0388563577
C -0.2421394843 0.1881641017 3.6298027320
C 0.8878390809 0.9882196036 3.5742964861
C 0.8973065048 2.2289861698 2.9632590886
C -0.2827309699 2.6797981005 2.3755808417
F 2.0385826241 0.5262399016 4.1268123170
H 4.1542070501 -4.4704376767 -5.1495994695
H 5.2648173871 -5.4690917278 -4.1587110092
H 5.7809835822 -4.8805435081 -5.7649531425
H 6.6921505459 -1.3551034964 -3.2262000989
H 5.8241111172 -0.2725348683 -1.1762214247
H 2.8141679479 -3.3053935254 -0.8576067945
H 3.6614456695 -4.3874762632 -2.8862943750
H 3.0815182953 -1.7114178259 0.9347210926
H 4.5230214762 -0.7114959634 1.0154952285
H 3.5805457693 0.9449049082 -0.5109557506
H 2.6057939985 0.7534802625 0.9586750909
H 2.0651039578 1.7890142809 -1.9144463822
H 0.9525602644 1.9750861315 -0.5550565656
H -0.2798777551 2.0308396540 -2.7140643901
H 0.4379222014 0.4852236897 -3.1955110104
H -1.8062335939 0.0241474888 -2.4423935460
H -1.2828310037 -1.5018920082 -0.4832834799
H -0.1691845483 -1.6606591005 -1.8500161476
H 0.3391120484 -0.0878177290 0.7417609215
H 1.0716376458 -1.6261703427 0.2677121143
H -1.1212686671 1.6705140817 -0.0942924930
H -6.0945366185 -1.7305611129 -0.5118846663
H -7.7775821508 -1.3978671883 1.2942692861
H -5.3914521443 1.7142581524 3.0778287665
H -2.4947487307 3.2669341977 1.1171607969
H -3.4153152210 2.7608924513 2.5292013009
H -2.3029871134 0.0388742842 3.0612440790
H -0.2006239483 -0.7805923150 4.1155981872
H 1.8077255540 2.8175411896 2.9348848676
H -0.2933699077 3.6457943180 1.8782356894
H -7.4276195098 0.2917420520 3.0566411966
