51
CONF81
C -3.0846128430 -0.7743897678 1.7215267801
N -2.1572544647 -1.8621285157 1.3998977963
C -1.7553991906 -2.5116165191 2.6604789318
C -0.8215425936 -3.6901969670 2.4236942042
C 0.4263199575 -3.2241826735 1.6798105014
C 0.0147275086 -2.4966858109 0.4054985472
C -0.9682354995 -1.3543420718 0.6786567829
C -1.3517434331 -0.6644820925 -0.6469671114
C -1.2177971826 0.8592911587 -0.6106893439
N 0.1590746014 1.2631241387 -0.3007815024
C 0.3879451170 2.3246928162 0.5937431512
C -0.5577207140 3.3353580597 0.8090571951
C -0.3147297391 4.3455652086 1.7363751880
C 0.8878381081 4.3934304686 2.4348417968
C 1.8562974183 3.4206365197 2.1976883109
C 1.6010319806 2.3878864435 1.3007591158
S 2.7769055930 1.0673797284 1.0868455453
C 2.5103760465 0.7763229223 -0.6480237176
C 1.2053834798 0.8703614454 -1.1521061520
C 0.9771672918 0.5714047072 -2.5016678260
C 2.0247021302 0.1422814943 -3.3174857605
C 3.3247814640 0.0550290866 -2.8036930755
C 3.5609251492 0.3962555676 -1.4788561159
S 1.8109281978 -0.3003322395 -5.0263935959
C 0.0118023581 -0.1490284668 -5.2855756371
H -3.4949001407 -0.3216459258 0.8148935483
H -2.6050301021 0.0252523791 2.3209376324
H -3.9231881759 -1.1746504673 2.3006602113
H -2.6661127543 -2.8439063665 3.1729987014
H -1.2526996145 -1.7808584973 3.3290964289
H -0.5600135315 -4.1408949884 3.3880157986
H -1.3437757891 -4.4543962925 1.8332552851
H 1.0838508548 -4.0691771884 1.4460503493
H 0.9960346327 -2.5376548971 2.3219517371
H 0.8910870854 -2.0761368471 -0.1034836068
H -0.4584314460 -3.2032922257 -0.2912025931
H -0.4473513851 -0.6119708808 1.3218552020
H -2.3811897195 -0.9160631849 -0.9234725543
H -0.7222968754 -1.0635828746 -1.4483374755
H -1.5796426038 1.3069557648 -1.5480883225
H -1.8455386101 1.2499455791 0.1923111506
H -1.4854588724 3.3395865281 0.2483717134
H -1.0696362674 5.1087555233 1.8967043228
H 1.0799022552 5.1847259093 3.1515779637
H 2.8051229803 3.4465304276 2.7247965780
H -0.0217417503 0.6755933256 -2.9016760000
H 4.1458278198 -0.2732860156 -3.4330785053
H 4.5675395740 0.3367562091 -1.0766374232
H -0.3213581049 0.8840733804 -5.1592123792
H -0.1605379545 -0.4569175564 -6.3194220137
H -0.5376334743 -0.8153754591 -4.6154993664
