49
CONF27
C -5.2149462650 -0.3216035823 -2.6275924022
C -3.9955094911 -0.9768935912 -1.9723151236
C -2.9509599271 -1.3392969534 -3.0322718145
C -3.3880540761 -0.0466014747 -0.9215679864
C -4.2713120137 0.3248848499 0.3054651580
C -4.3962358775 -1.0522896110 1.0268057596
C -2.9998443379 -1.6989484885 0.7959924739
C -2.2403427985 -0.6256361609 -0.0438455277
C -2.0203831188 0.5372631350 0.8882957292
C -3.2785837803 1.1184651594 1.1171853554
C -3.4457145637 2.1460181949 2.0318346851
C -2.3177693350 2.6132909889 2.7158415664
C -1.0635463034 2.0553480751 2.4877173445
C -0.9064166539 1.0039473934 1.5726059067
N 0.3756452188 0.4242452602 1.3957198184
C 0.9952588535 0.2811249598 0.1860076890
O 0.5072543605 0.6673388443 -0.8781843626
C 2.3178567615 -0.3754494296 0.2173355441
C 3.2464448897 -0.2377828164 -0.8053467470
N 4.3174365483 -0.9852058819 -0.4764025573
N 4.1581987355 -1.6268217240 0.6917264903
C 2.9500561699 -1.2608865721 1.1286384188
C 2.4857712956 -1.8648648034 2.4035020217
F 2.2853332338 -0.8851428281 3.3719770729
F 1.2639646864 -2.4815436252 2.2427381958
C 5.5514665633 -1.1486250096 -1.2339286855
H -5.6317514346 -0.9699193220 -3.4054452503
H -4.9329837445 0.6294837776 -3.0956880923
H -6.0055991412 -0.1184813025 -1.8987624154
H -4.3271291687 -1.9054414845 -1.4913012176
H -2.0985538214 -1.8705535437 -2.5977661916
H -3.3893978408 -1.9803356695 -3.8043046362
H -2.5716633953 -0.4335268007 -3.5210052543
H -3.0455291112 0.8678785878 -1.4261604112
H -5.2221772303 0.8238544105 0.1121314833
H -5.1945727783 -1.6476788072 0.5734581654
H -4.6340318776 -0.9242262907 2.0860244039
H -3.0787997086 -2.6332861815 0.2322048515
H -4.4239599716 2.5797864926 2.2176436002
H -2.4139126699 3.4278848042 3.4270768710
H 3.2034075820 0.3399575990 -1.7167891046
H 3.1988501445 -2.5908984661 2.8035508510
H 6.3973308726 -0.7919233883 -0.6413372974
H 5.4709662477 -0.5643668768 -2.1507795554
H 5.6939353929 -2.2037751704 -1.4791101563
H -2.4732184804 -1.9161321948 1.7291613128
H -1.3577330184 -0.9940751100 -0.5625038696
H 0.9420328469 0.3182925523 2.2262930866
H -0.1917262043 2.4369755972 3.0114052926
