39
CONF10
C 1.6790864229 -2.7414877502 0.1359225098
C 1.1068341740 -1.5318561804 -0.6077577325
C -0.3069470104 -1.8284435510 -1.1476941718
C -1.4320242773 -1.5393265229 -0.1463929784
C -1.9859968695 -0.1053489476 -0.2871718752
C -0.9471527924 0.9833604153 -0.4136976977
C 0.3680559371 0.9156690090 -0.2002032745
C 1.1537087697 -0.2881157595 0.3033156168
C 2.5881300405 0.2478143681 0.5312048668
C 2.4242118562 1.7694117185 0.6481173427
C 1.3056818608 2.0982693606 -0.3559006598
C 1.8323952626 2.2042500312 -1.7944366819
C -2.9717524175 0.2345661790 0.8201671540
C -4.2666026418 0.4223953157 0.5579397091
C -2.4127966110 0.3619098723 2.2086598997
H 2.6747872813 -2.5311405839 0.5390224472
H 1.7605337177 -3.6089085245 -0.5268985579
H 1.0315852951 -3.0210559132 0.9763271292
H 1.7546566796 -1.3270189735 -1.4721663755
H -0.4852125343 -1.2329799927 -2.0507664176
H -0.3423974433 -2.8790736321 -1.4593734597
H -1.0850514984 -1.7259120529 0.8753089766
H -2.2719553776 -2.2243801931 -0.3058230874
H -2.5581536653 -0.0892357974 -1.2273286922
H -1.3604516469 1.9470329174 -0.7171332053
H 0.7360201145 -0.5726579057 1.2795228420
H 3.0672662728 -0.1883730227 1.4120611530
H 3.2182058165 0.0002458429 -0.3319843781
H 3.3515340027 2.3164904583 0.4487899747
H 2.0925658477 2.0289813636 1.6607222562
H 0.7965711357 3.0347437149 -0.1010507876
H 2.3286860638 1.2790155015 -2.1056449880
H 1.0081200252 2.3859769854 -2.4903435671
H 2.5528154582 3.0247370037 -1.8856853395
H -4.6563087245 0.3337852405 -0.4521406268
H -4.9757297766 0.6686488374 1.3429348137
H -3.1781618969 0.6897749895 2.9156195070
H -2.0091133139 -0.5929540912 2.5648640793
H -1.5856441243 1.0811911536 2.2233547713
