51
CONF7
C 5.4959318822 0.2257325432 2.7128598447
C 5.3247197755 -0.8497797708 1.6760553720
C 6.3228958253 -1.7035592126 1.3338206260
C 7.6957267167 -1.7244707153 1.9302262621
O 7.7245752624 -2.3113293420 3.2579087046
C 4.0393976201 -0.9836122298 1.0254298821
C 2.9442182306 -0.2101494394 1.2586217582
C 1.7064483496 -0.3952241950 0.5689410511
C 0.5518569865 0.3273751610 0.7138701485
C 0.4098295942 1.4774289669 1.6696381712
C -0.5854797017 -0.0365170245 -0.1002228716
C -1.7806844028 0.6002673998 -0.1141835130
C -2.9352769925 0.2669372889 -0.9472326649
C -3.3820309146 -1.0010179476 -1.1325859496
C -2.7698728935 -2.2169138873 -0.4913101839
C -4.5668490362 -1.3258352658 -2.0091448956
C -5.4426841539 -0.1246813785 -2.3421330535
C -4.5616033324 1.0550826126 -2.7197188154
C -3.6336386604 1.4890269315 -1.5724966398
C -2.5878906424 2.4527885990 -2.1623325113
C -4.4398478842 2.2382259221 -0.4941275927
H 4.8167030514 0.0538806459 3.5556978502
H 6.5126325507 0.2587879897 3.1039052609
H 5.2487229292 1.2090724774 2.2979886215
H 6.1046890249 -2.4663770403 0.5874020936
H 8.3794014553 -2.2729481136 1.2696295404
H 8.0967415824 -0.7148334784 2.0603164767
H 7.3225573107 -3.1869563318 3.1880237726
H 3.9600928606 -1.7775190381 0.2820571339
H 3.0115519463 0.5823595280 1.9985476999
H 1.6887818929 -1.2074001022 -0.1589230504
H 0.1637248226 2.3989520468 1.1288098660
H -0.4105227901 1.2945486015 2.3729217130
H 1.3166113610 1.6576828578 2.2460170247
H -0.4346548977 -0.8808859431 -0.7705811810
H -1.8836772993 1.4965460549 0.4956945784
H -2.1302121030 -1.9714232784 0.3578087838
H -2.1624565015 -2.7792314870 -1.2134975129
H -3.5613670203 -2.8965009776 -0.1552099734
H -4.1873972690 -1.7806575715 -2.9387887687
H -5.1606777002 -2.1106024596 -1.5236370877
H -6.1277083892 -0.3725024849 -3.1606759185
H -6.0642825965 0.1297919769 -1.4753835808
H -5.1654065871 1.9177944871 -3.0282504664
H -3.9423634195 0.7707900189 -3.5823489904
H -3.0947032755 3.2658375165 -2.6949236832
H -1.9584773174 2.8981430530 -1.3860971015
H -1.9371632690 1.9297693261 -2.8716339272
H -4.9040751094 3.1312568082 -0.9290477877
H -5.2288757040 1.6075474018 -0.0747075114
H -3.7979331685 2.5653014995 0.3301102809
