47
CONF61
C 4.0960651826 1.8477737429 4.2501420255
C 3.3923111895 0.4865991143 4.1675309288
C 4.4033061742 -0.6595481534 4.3048396323
C 2.5813368739 0.3620499467 2.8940002096
C 3.1980231833 0.3987131090 1.6380750776
C 2.4584070282 0.2909776670 0.4650439599
C 1.0817614001 0.1367771671 0.5561822857
C 0.4346372310 0.0944972511 1.7798303737
C 1.1935105607 0.2109212703 2.9421430501
O 0.2803313501 0.0741756628 -0.5952784713
P 0.5098685220 -1.0191426223 -1.7521599212
O 1.2642912004 -2.2290680980 -1.3730665090
O 1.1992043930 -0.2637183780 -2.9839429951
C 0.6856205930 0.9447307563 -3.4967100707
C -0.1769537629 0.8930388205 -4.5819524352
C -0.6372904247 2.0909626947 -5.1226913210
C -0.2351862393 3.3094516957 -4.5790637391
C 0.6356014780 3.3334151793 -3.4917605229
C 1.1058556887 2.1438705294 -2.9403296284
O -0.9891089042 -1.1967681635 -2.2995636214
C -2.0871278049 -1.4499986684 -1.4676527011
C -1.9877830976 -2.2536727336 -0.3386366146
C -3.1332326505 -2.4721922595 0.4242446561
C -4.3506374072 -1.9067120121 0.0536340661
C -4.4252813112 -1.1118580987 -1.0886354520
C -3.2891543977 -0.8743879997 -1.8564144780
H 4.8265386931 1.9575995445 3.4412071601
H 4.6298280895 1.9429859907 5.2014971007
H 3.3763660350 2.6688064614 4.1736224588
H 4.9333821933 -0.5855555200 5.2600763033
H 3.9046051690 -1.6327439990 4.2598784599
H 5.1481866308 -0.6203466821 3.5026885733
H 4.2749810012 0.5171714744 1.5642130512
H 2.9455554740 0.3256128356 -0.5044412237
H -0.6429826492 -0.0273533928 1.8163547942
H 0.6922434429 0.1793697181 3.9055832593
H -0.4754135904 -0.0659359643 -4.9908001849
H -1.3114977442 2.0680375324 -5.9727781753
H -0.5970488409 4.2393907033 -5.0051033083
H 0.9552493660 4.2801072128 -3.0683433589
H 1.7876683066 2.1421519765 -2.0968198288
H -3.0672762250 -3.0955289709 1.3101692206
H -5.2380403140 -2.0858062182 0.6513895232
H -5.3701360668 -0.6674944619 -1.3845967937
H -3.3223078157 -0.2521327692 -2.7444091425
H 2.6870717509 0.4190403293 5.0052784183
H -1.0410021514 -2.7048858705 -0.0597808329
