47
CONF29
C -4.2296390566 -0.6204901491 -2.7192650614
O -4.3712193405 -0.7102090824 -1.2828687570
P -5.1107814471 0.4637732306 -0.4789106294
S -4.7245795764 2.2857583456 -0.9892028404
O -6.6383482103 -0.0211958189 -0.5589894899
C -7.6867514333 0.8409812630 -0.0631525518
O -4.7606896242 0.0392299200 1.0487088612
C -3.5197690424 0.3578547041 1.6061470406
C -2.4446700225 -0.5009130376 1.4091447439
C -1.2288329486 -0.2126247603 2.0124472236
C -1.0871477346 0.9439020476 2.7844837155
C -2.1763673125 1.7977301209 2.9663098703
C -3.4031158660 1.4995420137 2.3833280340
S 0.4423684581 1.3298193711 3.6240398389
C 1.6629008991 0.9977733199 2.3621869332
C 1.4760335528 1.3888371518 1.0333681006
C 2.4660317844 1.1469619143 0.0920671363
C 3.6503165422 0.5415655870 0.4925082343
C 3.8627701714 0.1651605085 1.8101142331
C 2.8574212106 0.3851921824 2.7456653382
O 4.6693771159 0.3541735326 -0.4458781035
P 4.8025450846 -1.0500943763 -1.2483763542
S 3.1889797535 -1.7732072451 -2.0256503277
O 5.5648751703 -1.9391465955 -0.1522142281
C 5.7138933465 -3.3620055612 -0.3621313797
O 6.0076539208 -0.6883328545 -2.2439422134
C 5.7285304956 0.0074664921 -3.4795558735
H -3.5900119159 -1.4555176941 -3.0065268431
H -3.7637726110 0.3295925448 -2.9957532266
H -5.2078080236 -0.7145564394 -3.2007114272
H -8.6242881905 0.3462152650 -0.3187364472
H -7.6062163026 0.9475387166 1.0232843666
H -7.6300020258 1.8226841086 -0.5425851927
H -2.5734779719 -1.3884557843 0.8002949113
H -0.3860649843 -0.8822012927 1.8787932369
H -2.0604627161 2.7031423022 3.5524387473
H -4.2564712264 2.1571330933 2.5008807945
H 0.5521132774 1.8718970350 0.7343374398
H 2.3320105417 1.4259941546 -0.9466625193
H 4.7965468051 -0.3097033974 2.0886855539
H 2.9981743901 0.0730137946 3.7751529895
H 4.7378673441 -3.8236316723 -0.5364412697
H 6.3767965815 -3.5514749489 -1.2119927304
H 6.1614750150 -3.7509441112 0.5530034762
H 4.9799817855 -0.5379043044 -4.0618416888
H 5.3762147518 1.0225089425 -3.2704423920
H 6.6756084790 0.0471676640 -4.0185132762
