39
CONF50
C 2.3341669320 1.8844493913 -2.2867256909
C 0.8473696813 2.1619501963 -2.0484757220
C 0.6221850577 1.6887169169 -0.5899709396
O 1.7719759240 0.8569719121 -0.2770023259
C 2.5582688488 0.6513147938 -1.4424709690
O 2.0998790503 -0.4760219452 -2.1863580303
C 2.3814048192 -1.7111534614 -1.5520489740
C 1.5994723307 -2.7786393214 -2.2813224711
F 1.8411399161 -3.9924836403 -1.7324897476
F 0.2636677095 -2.5667756619 -2.2229680405
F 1.9291269507 -2.8538718393 -3.5921812260
C 0.6929024144 2.8908940912 0.3776203035
N 0.6114116061 2.4818534717 1.7693670605
C 1.5896917665 2.0139802938 2.5697371361
N 1.0901468166 1.6627861600 3.7495077239
C -0.2369817648 1.9383389979 3.6060739824
N -0.5772478855 2.4345054121 2.4234182476
C -0.6494117481 0.8800551706 -0.3612312364
C -1.9279086223 1.3118558764 -0.7322153411
C -3.0744604211 0.5648299602 -0.4825296236
C -2.9407092761 -0.6474672224 0.1778213408
C -1.7015989346 -1.1109468107 0.5931220020
C -0.5801517030 -0.3394080028 0.3192595206
Cl -4.3798762120 -1.6005983755 0.4992914882
Cl -2.1855227760 2.8628067302 -1.5259738785
H 2.9551710832 2.6950084399 -1.8949658610
H 2.5801858905 1.7243232365 -3.3375912217
H 0.2296748566 1.5765825053 -2.7330128325
H 3.5872115013 0.4820855228 -1.1033513072
H 2.0609571453 -1.7249816011 -0.5031377802
H 3.4489730997 -1.9660936192 -1.6107740350
H 1.6449842360 3.4067223141 0.2232506751
H -0.1256008978 3.5864944271 0.1845822694
H 2.6241312285 1.9600382186 2.2584130394
H -0.9689354900 1.7787875721 4.3879794428
H -4.0460944452 0.9283321546 -0.7934785275
H -1.6068242184 -2.0521706782 1.1216590050
H 0.3876124314 -0.6878810274 0.6547971709
H 0.5973448950 3.2161457048 -2.1749186880
