55
CONF110
C 2.1362984218 0.6323360232 0.2415392513
C 3.6204918143 0.9596836724 0.2581870726
N 4.0201701284 1.4645130119 1.5754259682
C 3.7010905786 0.4560230874 2.5929928356
C 2.2164717340 0.1299875865 2.5708389284
N 1.8170369525 -0.3821684342 1.2540460317
C 0.3890220188 -0.7085265714 1.2510222171
C -0.0263401059 -1.5530752105 0.0354800059
C -1.4601605886 -1.9597394200 0.1261774115
C -2.4897000278 -1.5763914337 -0.6560736040
C -3.8326066390 -2.1595204282 -0.4529625630
C -4.3673410545 -2.3472055873 0.8280039498
C -5.5986463646 -2.9646775791 1.0090280349
C -6.3336209748 -3.3913634123 -0.0962913922
C -5.8431035516 -3.1816169104 -1.3796946258
C -4.6028165753 -2.5650217454 -1.5536290505
S -3.9959991745 -2.3605935715 -3.2147251315
C -2.9978377979 -0.9104346583 -3.0110697048
C -2.3689348797 -0.6323854326 -1.7848093274
C -1.6518449223 0.5638883704 -1.6724186593
C -1.4968291587 1.4056528319 -2.7671935499
C -2.0757009674 1.0865797649 -3.9969794411
C -2.8378554899 -0.0641749770 -4.1117146920
C -0.7635726335 2.7026754883 -2.6245576832
F -1.6194209447 3.7537975426 -2.4717938224
F -0.0090534763 2.9866019236 -3.7159562360
F 0.0632464631 2.7217408051 -1.5536396271
C 5.4375413927 1.8444811378 1.6031236304
C 5.7082297128 2.8072110257 2.7522955137
O 4.8231864659 3.9308800324 2.6859594536
H 1.8716424022 0.2584085563 -0.7529431932
H 1.5550135480 1.5590826379 0.4185929754
H 4.1961645834 0.0539044366 -0.0162837457
H 3.8264138362 1.7298822369 -0.4938281200
H 4.2842601951 -0.4703630204 2.4238013520
H 3.9629625350 0.8398263287 3.5846803256
H 2.0053896114 -0.6348044225 3.3272656009
H 1.6424301231 1.0397399378 2.8393622425
H 0.1724393472 -1.2832927530 2.1602479227
H -0.2337773094 0.2078254974 1.2984670656
H 0.5947480184 -2.4584526202 0.0357418843
H 0.1688575912 -1.0204759499 -0.8982154394
H -1.6849874543 -2.6873529765 0.9052730495
H -3.8015429522 -1.9986919297 1.6865084588
H -5.9900157616 -3.1041253679 2.0114531437
H -7.2991073108 -3.8683738557 0.0370303697
H -6.4213266930 -3.4895161776 -2.2453637828
H -1.2199127888 0.8333073840 -0.7156634682
H -1.9560638877 1.7446207298 -4.8508927451
H -3.3234733539 -0.3016879497 -5.0525830525
H 5.6664021005 2.3553838646 0.6600183671
H 6.1064526786 0.9667316383 1.6820412257
H 5.6097964068 2.2989620760 3.7234811262
H 6.7327287834 3.1863172710 2.6784320809
H 3.9731049458 3.5539874794 2.4040599601
