55
CONF171
C -9.1400663429 0.1359825453 0.5461416618
C -7.6917965998 -0.0219503766 0.9416083129
O -6.8938278235 0.2496256392 -0.2480498047
C -5.5546846357 0.1422266535 -0.0857664566
O -5.0073828759 -0.1574142978 0.9626573341
N -4.9361297982 0.4204643878 -1.2751375622
C -3.5652044973 0.4155509163 -1.5589393979
C -2.5796137430 0.1269824296 -0.6105557224
C -1.2446983010 0.1210092834 -0.9995690950
C -0.8677342348 0.4519156893 -2.3016400208
C -1.8530972409 0.7619518960 -3.2387800217
C -3.1888503633 0.7260706582 -2.8754033234
S 0.8584274036 0.4747726945 -2.7422745829
C 1.5025545741 1.0872296741 -1.2001664052
C 2.6008226078 1.9461049976 -1.1741649043
C 3.0650769123 2.4296107661 0.0445964329
C 2.4063280850 2.1003221618 1.2284875423
C 1.3007496959 1.2572757841 1.2011303153
C 0.8779641826 0.7059007168 -0.0070506442
N -0.2151081398 -0.2129223108 -0.0656282921
C -0.1654238002 -1.5045781499 0.4579594123
O -1.1017697515 -2.2828959897 0.2992408138
C 1.1176392854 -1.9340941402 1.1140385927
C 2.1036242043 -2.4122350810 0.0036433928
N 3.4856907748 -2.5972285173 0.4230068296
C 4.1617012288 -1.3436102644 0.7668374596
C 5.6322978933 -1.6218092807 1.0334981300
O 5.7933233792 -2.5736600675 2.0933318584
C 5.1296230505 -3.7994528550 1.7582704827
C 3.6478776269 -3.5670498172 1.5094070832
H -9.7712933793 -0.0603761573 1.4175282531
H -9.4099439928 -0.5722682124 -0.2421795282
H -9.3418739206 1.1520969905 0.1957978258
H -7.4702295604 -1.0369911040 1.2854591195
H -7.4020583027 0.6862668735 1.7240544205
H 1.7288941960 -3.3599212191 -0.4022758057
H -1.5760113670 1.0303438990 -4.2529882638
H -3.9519647793 0.9589434489 -3.6119071536
H 3.0817684921 2.2364984151 -2.1027792863
H 3.9258691271 3.0899039048 0.0647197827
H 2.7471857606 2.5072885705 2.1745336299
H 0.7720648449 1.0035356090 2.1145344040
H 1.5782849523 -1.1336144469 1.6916150614
H 0.8753241953 -2.7586829281 1.7870681381
H 2.1039546004 -1.6809601127 -0.8140214644
H 4.0685320425 -0.6407980487 -0.0711821053
H 3.7267230010 -0.8604309365 1.6626238890
H 6.1143014125 -2.0034726250 0.1189233468
H 6.1424186642 -0.7084702896 1.3529459882
H 5.5962492037 -4.2388904222 0.8618881961
H 5.2748069107 -4.4751444537 2.6059762462
H 3.1805165341 -3.2197076037 2.4502130072
H 3.1719389113 -4.5133479703 1.2229896589
H -2.8395801599 -0.1112683245 0.4092008613
H -5.5495677673 0.6492508131 -2.0448996698
