44
CONF20
C 3.9273803708 -0.6507082213 -0.4402013624
C 2.9807224654 0.3139419808 -1.0688478144
N 1.7085880441 -0.0875820790 -1.2116670525
C 0.8700988308 0.7925287090 -1.7744773585
N 1.2331809138 2.0035723150 -2.2169434413
C 2.5234019834 2.2816743296 -2.0494586361
N 3.4472915662 1.4946036791 -1.4741550443
O 2.9980010135 3.4507295336 -2.4669741032
C 2.0687272868 4.3681492965 -3.0992099737
N -0.4716071871 0.4668223506 -1.9225277989
C -1.3338960900 1.4384734110 -2.6229134342
C -1.1361222575 -0.6373723890 -1.3355101047
O -2.3549227303 -0.7153489609 -1.3443351720
N -0.3236642191 -1.6040985842 -0.7863135309
S -0.9521151153 -2.8361530350 0.1952054283
O -1.8775166529 -3.6497157323 -0.5983845208
O 0.2451055057 -3.4578206801 0.7805495769
C -1.8876829659 -2.0430353678 1.5102878799
C -3.2743156958 -2.1093615913 1.4445565059
C -4.0309302542 -1.6089765979 2.4999108657
C -3.3984248952 -1.0723392376 3.6160635508
C -2.0088326001 -1.0255850620 3.6816564845
C -1.2335073946 -1.4977412546 2.6224728688
C 0.2495381421 -1.3118617591 2.6901095563
O 0.8867534525 -0.6710046837 1.8790453520
O 0.7597273324 -1.8796959417 3.7857720270
C 2.1898862319 -1.6935045118 3.9760128532
H 3.4215371167 -1.2304681504 0.3349202425
H 4.2766986369 -1.3529893186 -1.2068069049
H 4.7935280391 -0.1303190332 -0.0306196672
H 1.6380775426 3.9132522580 -3.9939344993
H 2.6717598525 5.2364664710 -3.3604706459
H 1.2764250568 4.6441041885 -2.3999671770
H -1.5316628268 2.3071671653 -1.9885166168
H -2.2704906923 0.9434204089 -2.8660895678
H -0.8346043918 1.7648105473 -3.5345316208
H -3.7524718722 -2.5580526766 0.5825987359
H -5.1134499285 -1.6523753189 2.4495842300
H -3.9859352361 -0.6917925011 4.4448330906
H -1.5154618334 -0.6067617661 4.5522235204
H 2.4173557225 -0.6289436075 4.0634122895
H 2.4252361817 -2.2185235677 4.9000455286
H 2.7336825796 -2.1259429684 3.1331469053
H 0.6830671146 -1.3482735383 -0.6735357270
