44
CONF7
C 1.3407529070 0.3324871923 -3.7067423549
C 1.9422373986 0.8660589327 -2.4515883069
N 1.0917132802 1.1647236947 -1.4568643177
C 1.6418584653 1.6193606030 -0.3242121701
N 2.9569006292 1.8160535979 -0.1507620778
C 3.6984279076 1.5115997032 -1.2116626024
N 3.2631138283 1.0219337224 -2.3849391665
O 5.0155192820 1.6839824563 -1.1586363449
C 5.5760970926 2.2127873401 0.0691677941
N 0.8363059663 1.9118650278 0.7673730460
C 1.5012170007 2.4387750773 1.9745142247
C -0.5535173961 1.6535159266 0.8827642826
O -1.1318787282 1.7794664410 1.9502873440
N -1.1896465226 1.2788891316 -0.2786225442
S -2.7858919894 0.7065934204 -0.2719265773
O -3.6664114197 1.7503241437 0.2573691771
O -2.9796628700 0.2081902054 -1.6410552359
C -2.8312135136 -0.6922413528 0.8571057904
C -3.4284247079 -0.5024048800 2.0974521015
C -3.5803509726 -1.5888739485 2.9534948103
C -3.1589868549 -2.8526721784 2.5546172422
C -2.5770518520 -3.0371649289 1.3038382202
C -2.3915028170 -1.9555627040 0.4428908816
C -1.6505770378 -2.1847132963 -0.8369668825
O -0.6053819232 -1.6358373213 -1.1194227906
O -2.2506295920 -3.1159109093 -1.5837787404
C -1.5702168364 -3.4506362509 -2.8241644283
H 0.6953904572 -0.5193376377 -3.4709374662
H 0.7060412893 1.1012362966 -4.1607389810
H 2.1153234602 0.0359496065 -4.4130927089
H 5.3682891436 1.5374161483 0.9021649792
H 5.1637825086 3.2024640292 0.2780868868
H 6.6470246675 2.2737680910 -0.1191532625
H 0.7289703885 2.7392165939 2.6773828317
H 2.1169567952 3.2968772050 1.7032998518
H 2.1340657777 1.6714550527 2.4281573662
H -0.5735165809 1.0219093940 -1.0817365872
H -3.7779366671 0.4827014894 2.3808820288
H -4.0396044985 -1.4442422027 3.9252877766
H -3.2872158732 -3.7033313455 3.2155400959
H -2.2489786735 -4.0231463597 0.9925260404
H -1.4928975757 -2.5614997690 -3.4540551508
H -0.5746293525 -3.8443732083 -2.6082444076
H -2.1938640963 -4.2076516320 -3.2964224662
