44
CONF9
C -0.3954732419 -3.2449682769 -0.4151562045
C -1.3607398101 -2.1161012162 -0.8160551095
C -2.7779096495 -2.6797745731 -0.8997064667
C -0.8969895981 -1.4945038679 -2.1464920025
C 0.3213678740 -0.6363161855 -1.7776645019
C 0.0788212595 -0.1718802875 -0.3136464745
C 0.0383416972 1.3615890673 -0.1789767380
C 1.3914606257 1.9766618725 -0.4251692645
C 2.4102059201 1.8457354723 0.5253437126
C 3.6737552693 2.3860338341 0.3120715767
C 3.9162636951 3.0659530565 -0.8762215051
Cl 5.5155315740 3.7579884906 -1.1590090419
C 2.9315365296 3.2186376341 -1.8419651788
C 1.6723446681 2.6708217122 -1.6040674291
C -1.2352974380 -0.8821675623 0.1447343402
O -2.3780592024 -0.0214646965 0.0230672513
C -1.2323111658 -1.2995584110 1.6171981707
N -1.0574135037 -0.1769816214 2.5322469720
C -1.9676802642 0.7226902511 2.9490250301
N -1.3900482170 1.6422497081 3.7173726058
C -0.0876249169 1.2431262400 3.7305174205
N 0.1638207736 0.1451454506 3.0275757196
H -0.7396008171 -3.7629322888 0.4853864183
H -0.3531133506 -3.9822117016 -1.2235406771
H 0.6223504945 -2.8851993511 -0.2355914698
H -3.1159399219 -3.0604134705 0.0704879523
H -2.7956770566 -3.5152651562 -1.6081932820
H -3.4920728295 -1.9269651094 -1.2420485237
H -1.6972086959 -0.8672643383 -2.5621350939
H -0.6732419325 -2.2612363238 -2.8951141872
H 0.4370457385 0.2160660987 -2.4535301341
H 1.2419864704 -1.2234523025 -1.8456745712
H 0.8910869459 -0.5376182285 0.3241319824
H -0.3084816242 1.6403853119 0.8212913613
H -0.6801355191 1.7734444997 -0.8954794716
H 2.2108994479 1.3155893441 1.4528346029
H 4.4541488366 2.2833414476 1.0579179769
H 3.1368412726 3.7561408861 -2.7610307206
H 0.8956801311 2.7924023659 -2.3538744859
H -2.4454158145 0.2821646539 -0.8909635060
H -0.4184284324 -1.9955008285 1.8180469498
H -2.1839713986 -1.7827274507 1.8602259475
H -3.0132653013 0.6652228338 2.6793234571
H 0.6926102775 1.7631125094 4.2725066978
