29
CONF25
C 2.3964993287 -0.6658955461 -1.1355977380
N 2.2092093761 0.1227965337 0.0824086370
C 2.0722114361 -0.6451623114 1.3239258372
S 1.4213730277 1.5799353122 -0.0772299791
O 1.3369882590 2.1782034174 1.2551603799
O 1.9890224567 2.3004908433 -1.2076012340
N -0.2070542403 1.1233393844 -0.6053511342
C -0.9082427757 0.2173247099 0.2684863122
C -1.2781723411 0.5881553695 1.5611562829
C -1.9205091149 -0.3348699656 2.3787146197
C -2.2018170707 -1.6153073676 1.9086118756
C -1.8465592387 -1.9736242194 0.6111635303
C -1.1968654506 -1.0592740824 -0.2111600959
S -1.1117361186 2.3387088580 -1.3995819176
C -1.3090042157 1.5876621561 -3.0637010653
F -2.0531607071 0.4548059040 -3.0181581098
Cl -2.2136271942 2.8358951584 -3.9896304574
Cl 0.2296604551 1.1712513563 -3.8801627358
H 3.3010982580 -1.2701205344 -1.0105857961
H 1.5455052560 -1.3343007417 -1.3273991005
H 2.5358093092 -0.0019183521 -1.9897677935
H 3.0166583339 -1.1738169498 1.4935538080
H 1.2545559726 -1.3767649545 1.2678544770
H 1.8966167615 0.0321599569 2.1596778473
H -1.0487401218 1.5855086837 1.9180478198
H -2.2062920573 -0.0504928068 3.3861206475
H -2.7055208111 -2.3305102619 2.5505505851
H -2.0759316785 -2.9658848328 0.2365907044
H -0.9219752797 -1.3182947173 -1.2277960970
