36
CONF338
C 7.8890087388 4.3181448755 -2.1443569373
C 7.1905631047 3.0098035499 -2.0805878641
C 5.9929567327 2.8082683703 -1.5168708267
C 5.3740182432 1.4776128302 -1.5053710847
O 5.8389191714 0.4538981170 -1.9756088866
O 4.1674701775 1.5197468170 -0.8827333951
C 3.4533463007 0.2633596057 -0.8244341038
C 2.1457519724 0.5753715330 -0.1116536301
C 1.2984839113 -0.6659715601 0.0307539233
C -0.1035557280 -0.3798175771 0.6534864962
C -0.9020447661 -1.6517780687 1.1044880531
C -2.4376623396 -1.3880632650 1.2943059813
C -3.1529596615 -2.4887019672 2.1514583774
C -4.7096048209 -2.5062614026 1.9948753311
F -5.2266596078 -3.3106041306 2.9336115554
F -5.0659710001 -2.9710789938 0.7928951017
F -5.2099383904 -1.2732956325 2.1564217155
F -2.6948225443 -3.7109942178 1.7942797356
F -2.8753081555 -2.2752745949 3.4554677295
F -2.6106426565 -0.1961482141 1.9104934502
F -3.0225014022 -1.3394658572 0.0752103485
F -0.3938116187 -2.0847575909 2.2829136330
F -0.7534182039 -2.6262255236 0.1793741239
F -0.8408001563 0.2958554738 -0.2659719564
F 0.0621122677 0.4146942691 1.7397666091
F 1.9201798080 -1.5965395388 0.8261791395
F 1.0968599688 -1.2550325698 -1.1892074893
H 7.3115180387 5.1160693647 -1.6720364752
H 8.0880218802 4.5878229737 -3.1888916711
H 7.6968924355 2.1558884669 -2.5299491757
H 4.0515654313 -0.4685011553 -0.2734615890
H 3.2862958164 -0.1038963043 -1.8405772914
H 1.5756780022 1.3203076322 -0.6761686743
H 2.3455254604 0.9750276697 0.8859917254
H 5.4394272855 3.6197895917 -1.0531438817
H 8.8695307985 4.2466447300 -1.6578103129
