51
CONF64
C 3.1272375604 -1.4641313527 1.4217839325
C 2.4353956294 -0.1313050541 1.2993379638
C 1.0282877265 -0.0889032541 1.2637874132
C 0.3552229480 1.1297591180 1.2237252432
C 1.0679426598 2.3247468166 1.2135912806
C 2.4544454552 2.2981973055 1.2293420161
C 3.1505682276 1.0818439022 1.2593215425
C 4.6336275269 1.1303305853 1.2321168838
C 5.3633883341 0.4448680564 0.2522881076
C 6.7512557031 0.5336565661 0.2077067254
C 7.4351829210 1.3077297586 1.1436091546
C 6.7200081590 1.9970132095 2.1205056349
C 5.3310204639 1.9117462923 2.1619480328
C 0.2698566862 -1.3938825756 1.3008162669
O -1.1455217796 -1.2254150547 1.0577686979
C -1.5137408814 -1.0825307150 -0.2388012717
O -0.7289964365 -1.1034793910 -1.1665517651
C -2.9776634898 -0.9103101028 -0.3325109521
C -3.5430929036 -0.2832827023 -1.6118730290
C -3.8228784395 -1.7387546541 -1.2876066444
C -3.1717271041 -2.7694737534 -2.1809876639
C -5.1867174906 -2.1525260341 -0.7810810438
C -4.5628044670 0.7483836647 -1.4863594793
C -4.7201683120 1.7979038938 -2.2964432040
C -5.7967214557 2.8263519861 -2.1238654463
F -6.6116875536 2.8948000001 -3.2072248691
F -6.5746373605 2.5589193304 -1.0553918278
F -5.2873151442 4.0722298058 -1.9495427575
Cl -3.6946708924 2.1205917148 -3.6776310634
H 2.6381942975 -2.0895535480 2.1753321083
H 3.1003177716 -2.0187566199 0.4756243068
H 4.1725923477 -1.3469714146 1.7080856482
H -0.7293279866 1.1505339170 1.2044700073
H 0.5399479927 3.2727075376 1.1830573167
H 3.0177052742 3.2260214138 1.1961619511
H 4.8357955062 -0.1495143444 -0.4878106427
H 7.2996319103 0.0012776468 -0.5635565131
H 8.5181024495 1.3750152944 1.1097064144
H 7.2442491445 2.6010229656 2.8549231633
H 4.7776471242 2.4456470505 2.9291761379
H 0.3203206602 -1.8471889366 2.2959941950
H 0.6748408727 -2.1049474661 0.5746384464
H -3.4655387761 -0.6411404680 0.5984099318
H -2.7999847720 -0.1360351262 -2.3893289116
H -3.8387782375 -2.9886114453 -3.0212596438
H -2.2142655018 -2.4279194579 -2.5758351922
H -3.0112993487 -3.6996531431 -1.6246319060
H -5.1086636224 -3.1243275184 -0.2829655251
H -5.8811932906 -2.2566171616 -1.6217789120
H -5.6082834909 -1.4425984490 -0.0667090772
H -5.2671064089 0.6700379326 -0.6634817849
