39
CONF65
C 4.3927116302 0.1066638774 -2.3282930435
C 3.4818568845 -0.2085589005 -1.1439043370
C 2.0763472496 0.3648824573 -1.3367682019
C 1.1886279013 0.1046028507 -0.1404182145
C 0.8613696918 -1.3530316620 0.1345803764
O -0.4163673519 -1.2856942349 0.7980956022
C -1.0355707711 -0.0466277708 0.4380620188
C -2.3291729186 -0.2864574838 -0.3678217554
N -2.0932437062 -1.1648410940 -1.4965448681
C -2.0531737768 -2.5127130022 -1.4998143450
N -1.7141397871 -2.9597962517 -2.7029600298
C -1.5482972603 -1.8074777850 -3.4132667086
N -1.7639861489 -0.6935512858 -2.7260514900
O -0.1339741260 0.6329331230 -0.4045003284
C -1.3403475385 0.7625800513 1.7023763681
C -2.0268937603 0.2587909602 2.8127371546
Cl -2.6180900683 -1.3976456133 2.8731498308
C -2.2853832086 1.0359058521 3.9374451789
C -1.8494859512 2.3533233744 3.9450384588
Cl -2.1707251960 3.3402070160 5.3600351276
C -1.1733954740 2.9020472131 2.8650502911
C -0.9341095044 2.0978199101 1.7583423014
H 4.4949992572 1.1889075192 -2.4630439184
H 5.3928056567 -0.3122597567 -2.1816557926
H 3.9836855943 -0.3096114149 -3.2553039228
H 3.9166515034 0.1981540182 -0.2218280645
H 3.4192633201 -1.2958940519 -1.0085410128
H 1.6066398298 -0.0783905603 -2.2247950049
H 2.1384927458 1.4473235288 -1.5025497789
H 1.5946766576 0.5834888130 0.7642734678
H 1.5676004336 -1.8449230721 0.8072071937
H 0.7728473408 -1.9200429537 -0.8038581237
H -3.0859801928 -0.7433611306 0.2723455908
H -2.7022076393 0.6720354796 -0.7361709436
H -2.2810391722 -3.1060250206 -0.6241519179
H -1.2700855723 -1.7853775972 -4.4595469630
H -2.8150757593 0.6181599816 4.7847800253
H -0.8405710256 3.9330510044 2.8818063109
H -0.4072595965 2.5114044104 0.9064633624
