44
CONF103
C 4.1842180429 -1.2749221780 -2.2828110773
C 3.3647297532 -0.3781641988 -1.3598729720
C 4.1581620863 0.1090680853 -0.0896747924
N 3.1839056492 0.2796240067 0.9695041764
C 2.0664028965 -0.6791507148 1.0250130900
S 1.9217455699 -1.3734047764 -0.6711421360
C 1.1349899686 0.5017800770 1.4705786606
C 2.3709335278 1.3921080071 1.1687480735
O 2.5912434447 2.5762017642 1.0817687393
N -0.0363989927 0.7665276239 0.7075789344
C -1.2528939376 0.9907718608 1.2605188120
O -1.4611571878 1.0268190563 2.4727079295
C -2.3823382160 1.2438603500 0.2474574945
C -3.6360510715 0.4984833634 0.6561473211
C -3.6014838871 -0.8847982918 0.8640980433
C -4.7529851248 -1.5942567216 1.1738953827
C -5.9714313620 -0.9185365564 1.2819764196
C -6.0256734820 0.4604749637 1.0815933730
C -4.8594465555 1.1563628655 0.7711502178
O -7.0766120048 -1.6619152434 1.5891750394
N -1.9473911397 0.9758782666 -1.1361435449
C 5.2878900931 -0.8316163998 0.2997351105
O 4.8733042501 -1.8327627953 1.0909432535
O 6.4275155378 -0.6962265541 -0.0878433698
C 2.8386436860 0.8352351935 -2.1279199880
H 3.5769998519 -1.5793927260 -3.1396135806
H 4.5388202734 -2.1755263867 -1.7747445679
H 5.0465010587 -0.7155749335 -2.6602668878
H 4.6184018278 1.0764844495 -0.3120214065
H 2.1837118698 -1.4883936656 1.7476005141
H 0.0066136659 0.7772517414 -0.3065501445
H -2.5816120681 2.3209004946 0.3267547207
H -2.6571076754 -1.4193813161 0.7864662248
H -4.7222357202 -2.6667227483 1.3381377865
H -6.9731642729 0.9856838467 1.1696695859
H -4.9088448910 2.2310548352 0.6166598927
H -7.8498486308 -1.0833621511 1.6371472684
H -2.5693628275 1.4606761992 -1.7745622429
H -2.0613189500 -0.0143769636 -1.3373174848
H 3.6815131291 1.3943247339 -2.5500475549
H 2.1930736772 0.5054439330 -2.9460291639
H 2.2596996251 1.5072562881 -1.4888659817
H 0.8763350971 0.4642613308 2.5329687064
H 5.6329026214 -2.4088347224 1.2888652024
