33
CONF153
C 4.8576216145 0.9159290859 0.2590516500
C 5.4082574755 2.2257259419 -0.2882578172
O 5.1519504994 2.2935073809 -1.6953035509
C 3.3522226093 0.8953558650 0.3960592162
C 2.8150950830 -0.4409726750 0.9842508691
C 1.2989834763 -0.5338654666 1.3954465931
C 0.2313195714 -0.1912425998 0.3041281998
C -1.2043313690 -0.7314938360 0.6537620160
C -2.3410387582 -0.0109016800 -0.1560496378
C -3.6830387324 -0.8206580743 -0.1856203341
C -4.9296162561 0.0362842291 -0.5861084068
F -4.6665292245 0.7533343915 -1.6876586475
F -5.9561212102 -0.7860669306 -0.8386288970
F -5.2787704336 0.8633858784 0.4045074535
F -3.9212764440 -1.3457376853 1.0382498061
F -3.5672782065 -1.8224767726 -1.0828095959
F -2.5742352446 1.1964093490 0.4061059589
F -1.9285560041 0.1701652429 -1.4313230571
F -1.4412372788 -0.5502773276 1.9717093825
F -1.2471727586 -2.0537861531 0.3738879992
F 0.1639860644 1.1547898000 0.1780095486
F 0.6052849278 -0.7355302452 -0.8740297659
F 1.0982005987 0.2704848643 2.4619374968
F 1.0969304603 -1.8218875899 1.7830631142
F 3.0746976623 -1.4329270812 0.0968828906
F 3.5004771603 -0.7107101871 2.1291443760
F 2.9240962749 1.9086789676 1.2176714671
F 2.7296861144 1.0750930352 -0.8107252057
H 5.1632972542 0.0824591436 -0.3814937450
H 5.2793534043 0.7473695895 1.2539052412
H 6.4884632698 2.2360108546 -0.0909755466
H 4.9598165878 3.0800907166 0.2367606007
H 5.5158631968 3.1277112241 -2.0158622493
