45
CONF18
C 0.0759831177 -2.9843147755 0.0598373138
C 1.5900731527 -2.9870083835 0.3116424592
C 2.2510702937 -1.6032701461 0.2564106155
C 1.7334582222 -0.6392756055 1.3244998040
C 2.3338755056 0.7667093920 1.2497315232
C 2.0221727595 1.4834543611 -0.0704279684
C 2.0961931715 3.0102327723 0.0169006241
C 0.9725820969 3.6421102485 0.8225192054
O -0.3093122408 3.3770905768 0.1706858468
C -1.1449134686 2.4853798855 0.7410944730
O -0.9116868390 1.8971187256 1.7798241595
C -2.4227199120 2.3426455839 -0.0505679131
C -2.9790231817 0.9179408923 -0.0212368846
C -2.0991320120 -0.0700627463 -0.7861482332
C -2.6066157348 -1.5095971678 -0.7033218619
C -1.8282285253 -2.4907955086 -1.5909328508
C -0.3149792346 -2.5226572973 -1.3451485887
H -0.4185831427 -2.3546283337 0.8090251895
H -0.3121242449 -4.0002269246 0.2158258782
H 1.7860693649 -3.4319654787 1.2968406223
H 2.0705535709 -3.6429781668 -0.4271345070
H 3.3362215912 -1.7216834151 0.3815382189
H 2.1071217105 -1.1670574328 -0.7392706800
H 0.6441602239 -0.5375171571 1.2376312787
H 1.9268535228 -1.0711340622 2.3162328099
H 1.9327302670 1.3510810556 2.0861863102
H 3.4223709108 0.7234228880 1.3927968237
H 2.7136891117 1.1444446320 -0.8497666826
H 1.0200125052 1.1942794257 -0.4168347456
H 2.0883775690 3.4435297198 -0.9903327182
H 3.0418422008 3.3148956713 0.4855418547
H 0.9313463451 3.2694995454 1.8477111043
H 1.0662993491 4.7309282242 0.8349447023
H -3.1388114099 3.0394941217 0.4061757286
H -2.2576431758 2.6832511953 -1.0770583723
H -3.9851491741 0.9283745934 -0.4567711653
H -3.0846740074 0.5922876307 1.0203282173
H -2.0370646396 0.2388204322 -1.8396800710
H -1.0775773984 -0.0201805781 -0.3875680338
H -2.5773623487 -1.8392298608 0.3434879991
H -3.6638010203 -1.5336733486 -1.0004313568
H -2.2372924172 -3.5003880447 -1.4493872613
H -2.0069529298 -2.2265245857 -2.6419401171
H 0.1499226048 -3.1955076184 -2.0788257539
H 0.1006676840 -1.5273149352 -1.5437661979
