44
CONF144
C 4.4820274670 1.7972661066 -2.6802086455
C 3.5812730694 1.2631076886 -1.5717590650
C 2.8526333601 -0.0827388773 -1.9425159351
N 1.6313969471 -0.1002890527 -1.1685000926
C 0.9441300833 1.1773554435 -0.9286059420
S 2.1889185893 2.4891720513 -1.2754260925
C 0.6674235450 0.6955262246 0.5372435846
C 1.4378147409 -0.5788222764 0.1231233431
O 1.7806802920 -1.6040356732 0.6626044929
N -0.6744863562 0.5536103424 0.9993247000
C -1.1533785994 1.2244109714 2.0815507921
O -0.4719610828 2.0026629989 2.7435429208
C -2.6461176032 1.0025409417 2.3868716588
C -3.1608599721 -0.3520031004 1.9571561870
C -4.0593907161 -0.4762686280 0.8959131803
C -4.5179722598 -1.7224891724 0.4810156237
C -4.0744624494 -2.8705571038 1.1359858614
C -3.1746401489 -2.7654986787 2.2014294506
C -2.7275344933 -1.5143616069 2.6031570095
O -4.5514179732 -4.0719568641 0.6955788223
N -2.8487660199 1.2150888001 3.8241341074
C 2.6145670791 -0.2378598053 -3.4364006376
O 1.4527879366 0.3032001803 -3.8359148154
O 3.4060617264 -0.7749456283 -4.1790333361
C 4.3794091251 1.0549135653 -0.2842899376
H 5.2701171371 1.0673399479 -2.8917367815
H 4.9580218304 2.7262005839 -2.3544677194
H 3.9281664274 1.9979014690 -3.6009542195
H 3.4868295133 -0.9213202959 -1.6389889311
H 0.0511459082 1.3406147832 -1.5370848082
H -1.2880347544 -0.0984843657 0.5296978651
H -4.4097532764 0.4160432632 0.3836410039
H -5.2200743586 -1.8146574440 -0.3412525177
H -2.8273618783 -3.6617062698 2.7090384397
H -2.0274920678 -1.4370034022 3.4296304435
H -4.1740631814 -4.7851342575 1.2280343785
H -2.3954410854 2.0854245305 4.0873916665
H -3.8417842755 1.3362786481 3.9947212380
H 5.2067507215 0.3609236365 -0.4725726000
H 4.7924875111 2.0078260985 0.0558089783
H 3.7600125912 0.6479615305 0.5198772649
H 1.3746197710 0.1863924778 -4.7992596531
H -3.1529917922 1.7627738638 1.7621584852
H 1.2431824730 1.2723555763 1.2676511260
