47
CONF10
C -7.9447515607 -0.8751313595 0.1235891334
O -6.9201038603 -1.8901719065 0.2127578433
P -5.7187887793 -1.7129689273 1.2620168071
S -6.1699354282 -1.1097113069 3.0395864914
O -4.9732310501 -3.1258794862 1.1188368928
C -5.3822589710 -4.2410163866 1.9434078089
O -4.7250950648 -0.7701664512 0.3892916869
C -3.5347693595 -0.2890107544 0.9405280820
C -2.3736356428 -1.0395233758 0.7987687132
C -1.1788704679 -0.5412646334 1.2990139774
C -1.1461257596 0.7129845034 1.9146085651
C -2.3211589059 1.4566094714 2.0400400568
C -3.5248890416 0.9497374524 1.5629023089
S 0.3500385662 1.3717556573 2.6352120380
C 1.5819138612 0.9844494403 1.4007705349
C 1.3466856428 1.1767524827 0.0366504934
C 2.3488888926 0.9121591726 -0.8862661552
C 3.5907195569 0.4812413060 -0.4349553780
C 3.8481200232 0.3018018227 0.9152845164
C 2.8332579927 0.5425744449 1.8347262519
O 4.5813974834 0.1645492442 -1.3678539701
P 5.6024198775 1.3040372318 -1.9119706501
S 6.4499495390 2.4283502499 -0.5911259776
O 4.6790145597 2.0138249485 -3.0151053445
C 5.1131558046 3.2525927163 -3.6220154865
O 6.5530025750 0.4019877888 -2.8383519519
C 7.6605119991 -0.3112820370 -2.2442626824
H -7.5219841973 0.0551158806 -0.2690145792
H -8.3918563629 -0.6992950921 1.1064664467
H -8.6904291442 -1.2654575935 -0.5697236743
H -4.6634628825 -5.0361719713 1.7430654599
H -5.3569283267 -3.9602152994 3.0000257241
H -6.3887619432 -4.5683013098 1.6652095541
H -2.4192737575 -2.0074584688 0.3126214291
H -0.2684702016 -1.1235761321 1.2063931253
H -2.2936404002 2.4349095052 2.5081102804
H -4.4482112310 1.5082615692 1.6621466161
H 0.3776179839 1.5268486180 -0.3021605499
H 2.1842154369 1.0484035232 -1.9490865224
H 4.8287208515 -0.0307863333 1.2350501156
H 3.0125199770 0.3834855834 2.8927425074
H 6.0002028724 3.0804056962 -4.2392832670
H 4.2827482696 3.5829556288 -4.2467658480
H 5.3305802360 3.9966743865 -2.8505614785
H 8.3030280109 0.3787169109 -1.6894461709
H 7.2901712146 -1.0976495370 -1.5788949088
H 8.2077500217 -0.7561466719 -3.0759328689
