74
CONF125
C -0.8740371125 -1.7843623252 -0.9156561276
C -0.4867102771 -3.1912392481 -1.3604216559
O -1.4767262762 -4.0529868495 -0.7275783916
C -2.0463589519 -3.4280755282 0.3475348813
O -2.8375014967 -3.9861553754 1.0602482404
C -1.4478289247 -2.0435756644 0.4674216280
C -2.3037056967 -0.8651631544 0.9372783453
C -3.6299914831 -0.7519606596 0.1894786470
C -4.6921598494 -1.5686826331 0.5785176700
C -5.9014319690 -1.5453652639 -0.1163935919
O -6.9784788003 -2.3217616964 0.1754863567
C -6.8092275830 -3.3001266432 1.2003701012
C -6.0644869204 -0.6734608314 -1.2003879235
O -7.2524478321 -0.6453750456 -1.8653666298
C -5.0011258527 0.1527204861 -1.5710776442
O -5.2849832509 0.9683617251 -2.6424177508
C -4.2630924713 1.8615851623 -3.0700229835
C -3.7869061745 0.1184090143 -0.8909387162
C -1.4744075699 0.4040610859 0.7840770087
C -1.9331040647 1.5470963118 1.4674966042
C -1.2735480232 2.7322429714 1.2602370062
C -0.2010485459 2.8294439019 0.3803237929
O 0.2280063572 4.1327664130 0.3109651614
C -0.4647751205 4.8075519119 1.3750580284
O -1.5602502415 3.9685067650 1.7797484584
C 0.2588869107 1.7390588203 -0.3117408006
C -0.3778836418 0.4967937618 -0.0892529569
C 0.1915544811 -0.7126636407 -0.8088692695
O 1.2886385197 -1.3406559913 -0.0838591498
C 2.3029289856 -0.5255768230 0.3758141015
O 3.0083076536 0.0094631414 -0.7588324245
C 4.0645456605 0.8603391137 -0.3364146307
C 4.7244201607 1.5037053778 -1.5447179670
O 5.8432840435 2.2693201260 -1.0977005196
C 6.7830696375 1.4749867628 -0.3907699962
C 7.9158524930 2.3644580726 0.0461061269
O 6.2069622028 0.8883179048 0.7725435150
C 5.1204241328 0.0445260930 0.4155988733
C 4.4813209945 -0.5701809757 1.6437547975
O 5.3560966498 -1.3899948981 2.4192659068
C 3.2465900545 -1.3802353560 1.2192089428
O 2.5326494209 -1.8303973232 2.3569982007
H -1.6755309382 -1.4071507501 -1.5640654220
H -0.5568932880 -3.3559785579 -2.4377133200
H 0.5048687089 -3.4789151522 -0.9984661821
H -0.6058690357 -2.1572728232 1.1691962999
H -2.5329505521 -1.0050524089 2.0005811651
H -4.5520768896 -2.2485796537 1.4076645547
H -5.9740183114 -3.9741349369 0.9729156673
H -6.6418129241 -2.8280930192 2.1773730600
H -7.7433487558 -3.8627072073 1.2258996512
H -7.1655430207 0.0142547270 -2.5669719652
H -3.9843873408 2.5575383335 -2.2682693891
H -3.3721479532 1.3139651384 -3.4039349719
H -4.6823347630 2.4192905552 -3.9086087247
H -2.9756157089 0.7755167241 -1.1771103162
H -2.8028303859 1.4905287843 2.1132567582
H 0.2201599309 4.9445249654 2.2256391006
H -0.8550533638 5.7602390563 1.0074869812
H 1.0910851486 1.8133224350 -1.0039737776
H 0.5710716335 -0.4087362301 -1.7933198574
H 1.9160039133 0.3125090678 0.9834189742
H 3.6887525269 1.6538506575 0.3331870694
H 4.0468718989 2.1928217702 -2.0557880712
H 5.0390499690 0.7196348039 -2.2540292878
H 7.1238562010 0.6568629556 -1.0575192813
H 7.5270831948 3.1526056939 0.6952577633
H 8.3882842316 2.8186925910 -0.8271385607
H 8.6550486153 1.7786596516 0.5961055803
H 5.4735031707 -0.7601163190 -0.2611010173
H 4.1665807366 0.2317311578 2.3239953323
H 5.8126340725 -1.9944002871 1.8203108877
H 3.5710635950 -2.2301988595 0.5911174284
H 3.1931747674 -2.1609307428 2.9809633916
