47
CONF114
C 2.2056953281 2.6379981703 2.3517487792
C 0.9682452809 1.8294982760 2.0350072349
C -0.3692122937 2.3527581083 2.4446478715
C 0.0469538994 2.4573915173 0.9733448385
C -0.6590052840 1.6240623290 -0.0043160912
O -1.3161997058 0.6274380898 0.2155189580
O -0.4671554723 2.1215601166 -1.2688829037
C -1.0347073486 1.3089681696 -2.3359784077
C -1.3157922572 2.2370239964 -3.4291854730
N -1.5505965010 2.9479355605 -4.3079285193
C -0.0756194459 0.2145886725 -2.7413583665
C -0.3333352836 -1.0883994641 -2.3224947216
C 0.5805294244 -2.0991070983 -2.6003359221
C 1.7311162071 -1.7813534908 -3.3218438201
C 1.9903620312 -0.4946857836 -3.7583839231
C 1.0830448775 0.5146677305 -3.4588028746
F 2.6099799964 -2.7673528237 -3.5961060217
O 0.3895002041 -3.4105423237 -2.2529473154
C -0.2423659229 -3.6856500557 -1.0419957982
C 0.1028862129 -3.0107856861 0.1254923397
C -0.5182642877 -3.3726805013 1.3171336296
C -1.4601957637 -4.4003829842 1.3414371104
C -1.7816960650 -5.0708219716 0.1633090874
C -1.1763672222 -4.7138212039 -1.0394704998
C -0.5321676088 3.5856234119 3.2390180947
C -1.6721539680 4.2722305409 3.2886675393
Cl -3.0810994538 3.8221254081 2.3708847560
Cl -1.8812735742 5.6981501269 4.2670109088
C 1.1902332249 0.3349970027 2.0489127063
H 2.0328674332 3.7136772694 2.2639877723
H 3.0130966356 2.3647231142 1.6651912083
H 2.5400418685 2.4220497686 3.3728038992
H -1.1351202048 1.5946065909 2.6006023440
H 0.3585776602 3.4314739633 0.6127785620
H -1.9845053831 0.8788519683 -1.9983533057
H -1.2335932507 -1.3188594597 -1.7640937228
H 2.8990517898 -0.2951501393 -4.3157741747
H 1.2833059107 1.5309592650 -3.7827720500
H 0.8428093029 -2.2174429880 0.1020647940
H -0.2550802850 -2.8511903656 2.2321885970
H -1.9388541250 -4.6779485624 2.2746848124
H -2.5129278968 -5.8728613919 0.1738507091
H -1.4186815929 -5.2205580802 -1.9676294737
H 0.2989853315 3.9529456676 3.8341755693
H 1.5804298338 0.0406393426 3.0290530668
H 1.9290900833 0.0521958884 1.2909862093
H 0.2691679724 -0.2195455803 1.8637820786
