33
CONF66
C 4.5174579266 0.0799027609 -0.7705525742
C 5.8541322324 0.5730637834 -1.3381803482
O 6.5301091363 1.5018718378 -0.4906451960
C 3.3954704552 1.0743673270 -0.9443296523
C 2.0618454407 0.6200307981 -0.2705149266
C 0.7904650432 1.4339267235 -0.6701592435
C -0.4840675009 1.2695500459 0.2468929373
C -1.0184534453 -0.1845425270 0.4680725998
C -2.4876288716 -0.2289209627 1.0246176203
C -2.8550469791 -1.6092094539 1.6710443119
C -4.3937563197 -1.8438560246 1.8326387367
F -4.5858351799 -2.9250119473 2.5998644373
F -4.9681873374 -0.7860447926 2.4220120423
F -4.9729604108 -2.0543194121 0.6460735809
F -2.2976674508 -1.6797837796 2.8982358307
F -2.3677363295 -2.6114324501 0.9034888907
F -2.6421376859 0.7315425723 1.9630395848
F -3.3418539674 0.0128146655 0.0049831704
F -0.2023636775 -0.8101946576 1.3487015632
F -0.9964048472 -0.8493001680 -0.7075396777
F -0.2207067883 1.8274734496 1.4466757072
F -1.4646845910 1.9866286366 -0.3593035779
F 0.4398765693 1.1109984997 -1.9342106713
F 1.0861230284 2.7568656657 -0.6308639083
F 1.8332366020 -0.6784776393 -0.6004798927
F 2.2308266356 0.6970783663 1.0743599359
F 3.7274486919 2.2938271421 -0.4058544939
F 3.1396813792 1.2909720427 -2.2746036160
H 4.2256104317 -0.8380823371 -1.2899327650
H 4.6279547558 -0.1516650053 0.2936709560
H 5.7147639599 0.9829985138 -2.3473099561
H 6.5137345030 -0.2948970953 -1.4200461738
H 6.0923431365 2.3578044328 -0.5648798411
