18
CONF12
O 0.0882127280 1.0949187632 -1.2984183577
C 0.0257753212 0.3195037601 -0.3659012522
O -1.0940495471 -0.1554504068 0.1903200132
C -2.3396739932 0.3244807721 -0.4071312881
C -3.4708564890 -0.3161298257 0.3585787732
O 1.0645882502 -0.2114628928 0.2882947641
C 2.3824801237 0.2042299515 -0.1902554818
C 3.4046488162 -0.5010693080 0.6665980827
H -2.3592456896 1.4158690658 -0.3325576843
H -2.3459735649 0.0403977722 -1.4637220650
H -3.4272856441 -1.4061423321 0.2830760195
H -4.4217157784 0.0213882978 -0.0636475459
H -3.4409370815 -0.0302323737 1.4136250923
H 2.4532080411 1.2925215679 -0.1018905819
H 2.4691396578 -0.0728735979 -1.2451635175
H 3.2945111963 -0.2215613508 1.7180324189
H 3.3109884583 -1.5866450326 0.5744787049
H 4.4061852957 -0.2117430314 0.3356952098
