39
CONF9
C -1.6527684218 3.4335262540 2.3690089090
C -1.0847780596 2.0626748040 2.1757525463
O -0.1018366518 1.6880582133 2.8116601129
C -1.7929334623 1.1736630846 1.1876686810
C -1.0215659838 -0.0982343993 0.8403266010
C -1.8613218937 -1.1910110344 0.1867930739
C -3.1825259476 -1.0119997572 -0.2225606261
C -3.8956139848 -2.0637650628 -0.7975280450
C -3.2978687647 -3.3081632587 -0.9739670659
C -1.9773852192 -3.4964245339 -0.5678788487
C -1.2697193398 -2.4463511234 0.0071646075
C 0.2241941845 0.1775396599 0.0160682372
C 1.4936288413 0.1308817651 0.5437522512
C 2.6532900538 0.1999428794 -0.3097940237
C 3.9718100380 0.0806566988 0.1590829249
C 5.0330110579 0.1343509943 -0.7280737085
C 4.7967246083 0.3190255824 -2.0956995088
C 3.5031703431 0.4514655518 -2.5790080510
C 2.4421198952 0.3895963838 -1.6804591584
O 1.1850783794 0.5485260211 -2.1856239590
C 0.0476533194 0.4708811903 -1.3810129393
O -1.0140345890 0.6660028595 -1.9477872379
O 1.7417920213 0.0014098676 1.8524418000
H -1.2644786488 3.8922115169 3.2789230130
H -2.7462510921 3.4053482484 2.3781725547
H -1.3586615217 4.0417530937 1.5038377687
H -2.7509466439 0.9256843697 1.6691081854
H -2.0515697312 1.7582750988 0.2974261623
H -0.6867261128 -0.5335724702 1.7895481248
H -3.6676236286 -0.0481435811 -0.1139896729
H -4.9224219321 -1.9037795037 -1.1127168808
H -3.8546880463 -4.1247977792 -1.4228328701
H -1.4996454720 -4.4631634901 -0.6954212951
H -0.2403788816 -2.5981045063 0.3234830858
H 4.1421056861 -0.0581422274 1.2203068892
H 6.0495570345 0.0369389080 -0.3627068836
H 5.6307619189 0.3638279046 -2.7884577749
H 3.3008122113 0.6038182915 -3.6335575868
H 0.9800351402 0.3895935072 2.3528111129
