46
CONF169
C -0.3456903514 3.6872427062 -0.2277320718
C -1.6380113090 3.1629862471 -0.8513924170
C -1.9306240344 1.7240010074 -0.4253832947
C -3.2094809296 1.2034806426 -1.0553799987
O -3.4728835078 -0.1656801079 -0.6054985126
C -2.8048464942 -1.1391642693 -1.2342364462
O -2.0725420093 -0.9856337149 -2.1882176513
C -3.1093188557 -2.5026379472 -0.6068620764
C -4.1725990162 -3.2217482931 -1.4187666582
O -1.9295064281 -3.3151084103 -0.6459386993
C -0.8174948453 -2.8447631973 0.0028068801
C -0.8326721723 -1.7909589688 0.9210511846
C 0.3580194542 -1.3746071460 1.5098079810
C 1.5430803313 -2.0091546523 1.1751044398
C 1.5694356880 -3.0711926187 0.2813318207
C 0.3828455355 -3.4906876408 -0.3047985075
O 2.7411842748 -1.6233168903 1.7911637465
C 3.2505352067 -0.4030350860 1.4828120486
C 4.2876570137 0.0602365063 2.3045816156
C 4.9061027345 1.2691910760 2.0956796223
C 4.4766026837 2.0621835557 1.0185527936
C 3.4456814582 1.6172842670 0.1808050881
C 2.8378046151 0.3929860915 0.4131958372
C 5.0944513762 3.3178675111 0.7818930608
N 5.5947895475 4.3460491902 0.5898232839
F 4.6792184168 -0.7172909057 3.3336776470
H -0.1402984817 4.7148255921 -0.5427884778
H -0.4065825112 3.6737989609 0.8659721158
H 0.5074494107 3.0659828175 -0.5226338644
H -2.4784982655 3.8074885512 -0.5635611083
H -1.5663313328 3.2096245483 -1.9455007452
H -1.0931395050 1.0782913609 -0.7165597201
H -2.0209501671 1.6695855527 0.6667845241
H -4.0822378408 1.7689346217 -0.7217908703
H -3.1598421835 1.2143053558 -2.1477550021
H -3.4479541524 -2.3664696327 0.4267409346
H -4.3690888773 -4.2013508984 -0.9762302733
H -5.0985938632 -2.6408840931 -1.4118770991
H -3.8374029539 -3.3507621890 -2.4514259902
H -1.7505336548 -1.2860930456 1.1959084593
H 0.3597880993 -0.5544188357 2.2207474394
H 2.5104633585 -3.5543201482 0.0407627866
H 0.3759546058 -4.3094938617 -1.0163573207
H 5.7009330656 1.5922594552 2.7580957399
H 3.1238628165 2.2303341220 -0.6529559963
H 2.0412643413 0.0498327342 -0.2366335350
