63
CONF371
C -10.8086166815 -0.8825594372 0.4775301666
C -9.2925737055 -1.0407872514 0.3846080243
C -8.6037810858 0.1941655183 -0.1950492678
C -7.0856782213 0.0501548616 -0.2906652725
C -6.4042691020 1.2983069719 -0.8529971100
C -4.8966076892 1.1469232359 -1.0739838359
C -4.0995947281 0.8767015806 0.2029651207
C -2.5888354647 0.8773382422 -0.0261421737
C -1.7894600317 0.5846270611 1.2425085892
C -0.2779352411 0.5828749872 1.0190460445
C 0.5096274472 0.3048134844 2.3002153336
C 2.0193629289 0.1620134134 2.0898224305
C 2.6921126486 1.4269127504 1.5503482660
C 4.2219648407 1.3716080045 1.5786209227
C 4.8234708984 0.2730682253 0.7005168847
C 6.3514667927 0.3297036631 0.6581590870
C 7.0061750389 -0.8420791608 -0.0778946382
C 6.6592671164 -0.9224801727 -1.5654046009
C 7.4084936045 -2.0444855341 -2.2836533268
C 7.1266921005 -2.1068371123 -3.7802661810
O 5.7664219430 -2.4284671449 -4.0877422805
H -11.2445347319 -0.6996897135 -0.5106195487
H -11.2826358452 -1.7774168302 0.8921753660
H -11.0750522448 -0.0349488105 1.1182313663
H -9.0492363093 -1.9136662686 -0.2354186112
H -8.8810555778 -1.2487904569 1.3810673123
H -8.8472111169 1.0690562048 0.4243924669
H -9.0144064082 0.4036444325 -1.1928917254
H -6.8398582885 -0.8141296750 -0.9244911173
H -6.6868919920 -0.1763437541 0.7064283878
H -6.5875137583 2.1452171857 -0.1767474921
H -6.8797233861 1.5599717297 -1.8077434328
H -4.7136834907 0.3356941327 -1.7926456812
H -4.5124768974 2.0630176729 -1.5424316657
H -4.3539275755 1.6359289439 0.9567286672
H -4.3937368478 -0.0905089964 0.6300047561
H -2.2824894968 1.8510224206 -0.4334961652
H -2.3375144171 0.1322841582 -0.7941918711
H -2.0417496165 1.3295072340 2.0104363645
H -2.0973665338 -0.3887291797 1.6494759583
H -0.0215354100 -0.1743831666 0.2640204824
H 0.0219321479 1.5509639005 0.5976192354
H 0.3174934308 1.1095111489 3.0239257131
H 0.1252914501 -0.6169023468 2.7572421856
H 2.4898260504 -0.1060654668 3.0459363250
H 2.2046027073 -0.6785355123 1.4083734464
H 2.3609298655 1.6154718973 0.5208067971
H 2.3543931580 2.2869419837 2.1450375807
H 4.6218254260 2.3415445196 1.2534286414
H 4.5612857001 1.2313440875 2.6146800199
H 4.5148235361 -0.7138608360 1.0699202585
H 4.4121863408 0.3666204663 -0.3135897694
H 6.7294523338 0.3545726367 1.6889372562
H 6.6676623022 1.2746083150 0.1941403122
H 6.7181045311 -1.7839729480 0.4092889572
H 8.0966831967 -0.7643711334 0.0249659819
H 5.5777045610 -1.0767182119 -1.6734763808
H 7.1501767562 -3.0112453303 -1.8329934848
H 8.4899796344 -1.9051151519 -2.1455643929
H 7.7217987055 -2.9017736589 -4.2410615476
H 7.4165779774 -1.1560830491 -4.2576554898
H 5.2143855145 -1.6980549685 -3.7901230391
H 6.8924494182 0.0403793059 -2.0444492520
