47
CONF140
C -2.0180547698 -0.9331548068 -1.9809145608
C -2.2909427757 0.2470105374 -2.8834577969
C -2.0231525737 -0.0349801280 -4.3460410535
C -3.4104369691 1.2095633434 -2.5849918521
C -4.2889176758 1.0519484502 -1.4246845983
C -5.5265715129 1.5377558209 -1.3286012115
Br -6.6017924832 1.2283703685 0.2138839144
Br -6.3761822872 2.5818220711 -2.6755990863
C -1.9429559471 1.6659589521 -2.4311582246
C -1.3659274938 1.9276210551 -1.1075967062
O -1.7048778322 1.4708796462 -0.0365897923
O -0.3171426624 2.8039969560 -1.2334826334
C 0.3949675092 3.0672306215 0.0033464534
C 1.1033523036 4.3273630373 -0.2186122169
N 1.6832370912 5.3163491607 -0.3553380992
C 1.3567505133 1.9483384542 0.3434263124
C 2.3173451816 1.5501702567 -0.5875389864
C 3.1778486259 0.5056890527 -0.2694510689
C 3.0957731068 -0.1375044573 0.9627750418
C 2.1288968584 0.2729810149 1.8785891267
O 2.0139474972 -0.2703958762 3.1389717908
C 2.3731763065 -1.5981891173 3.3345464509
C 1.8549830479 -2.6094044541 2.5295726922
C 2.1866888201 -3.9305646236 2.8132080171
C 3.0160010200 -4.2364905707 3.8917442414
C 3.5156705076 -3.2116170683 4.6917091775
C 3.1993292801 -1.8835041721 4.4147493761
C 1.2550495246 1.3147367042 1.5763624536
H -2.6877565252 -1.7561670074 -2.2518946905
H -2.1511191743 -0.7100382966 -0.9228563115
H -0.9875602391 -1.2730458754 -2.1281807003
H -0.9742063113 -0.3142281435 -4.4915565661
H -2.2412366779 0.8355190011 -4.9705336654
H -2.6489738526 -0.8684925218 -4.6828146478
H -3.8807985737 1.6567941083 -3.4552512521
H -3.9247919862 0.4913762771 -0.5711142502
H -1.5853839755 2.3301731224 -3.2100691255
H -0.3217095481 3.2134634797 0.8196340491
H 2.3886653116 2.0500336401 -1.5482923526
H 3.9329291342 0.1914756582 -0.9826367239
H 3.7758340427 -0.9451003122 1.2099513251
H 1.2025712032 -2.3623810419 1.6981784182
H 1.7856824008 -4.7252018097 2.1918733509
H 3.2677623960 -5.2693266839 4.1085620306
H 4.1599840646 -3.4419415446 5.5343040833
H 3.5821071492 -1.0716612354 5.0242296876
H 0.5019386438 1.6095682432 2.2996392700
