47
CONF178
C -6.6717242932 1.4520144481 -1.7725901023
O -6.9731901564 0.0931818707 -1.3288475390
P -5.8056321448 -0.9843345398 -1.1813028052
S -6.4706252292 -2.7188321819 -0.6336285132
O -4.9335270951 -0.9331978983 -2.5288669700
C -5.3965350997 -1.6353413839 -3.7162253068
O -4.7952845091 -0.2133031099 -0.1738850166
C -3.6249659350 -0.8283770692 0.2883097926
C -2.4577492862 -0.7249929822 -0.4589054780
C -1.2887236607 -1.2933347694 0.0312056630
C -1.2904227656 -1.9367928370 1.2719288702
C -2.4705492176 -2.0201345516 2.0147016053
C -3.6483532948 -1.4721030531 1.5168829960
S 0.1665014337 -2.7451485655 1.9221787731
C 1.4808988493 -1.6175980964 1.4757999126
C 2.6620905514 -2.1472389995 0.9531667706
C 3.7371534300 -1.3096211146 0.6721459846
C 3.6067270899 0.0538050593 0.8897391740
C 2.4317228002 0.5999413001 1.3973732234
C 1.3727455294 -0.2432190630 1.7064197733
O 4.6776190430 0.8712777014 0.5304851719
P 5.4714200488 1.7937940658 1.6208143880
S 5.7228091076 0.9889262565 3.3631375757
O 4.6897880926 3.1816139586 1.6908997853
C 4.3784359268 3.9202651276 0.4689057686
O 6.7563453410 2.1781099039 0.7519341199
C 7.7620647093 1.1669069289 0.4617619549
H -7.6385481625 1.9413745655 -1.8846416210
H -6.1464154565 1.4287736164 -2.7305182312
H -6.0717920211 1.9652245766 -1.0178225094
H -6.3687608361 -1.2457443182 -4.0311407313
H -4.6470155770 -1.4396451949 -4.4826552157
H -5.4639787249 -2.7069571195 -3.5129840759
H -2.4686323112 -0.2141467329 -1.4150924319
H -0.3763040307 -1.2291796132 -0.5520180349
H -2.4719189858 -2.5068195800 2.9845591123
H -4.5719818568 -1.5262166007 2.0822052571
H 2.7456594240 -3.2125281449 0.7652192027
H 4.6646034467 -1.7053653205 0.2725730290
H 2.3498180886 1.6690850102 1.5631060111
H 0.4597599601 0.1716624390 2.1204067918
H 3.8575918980 3.2726313355 -0.2412955926
H 3.7275232717 4.7358386470 0.7816807594
H 5.2977091570 4.3122496506 0.0292457522
H 7.3210144286 0.3577103177 -0.1263088482
H 8.5327177388 1.6763638552 -0.1156117333
H 8.1799101774 0.7794224017 1.3945994866
