44
CONF30
C 5.1186940214 -0.3488324821 1.6135302732
C 3.6363876399 -0.1993287549 1.7071652934
N 3.0829567576 0.8658992909 1.1261867957
C 1.7414733238 0.9111972859 1.2180313132
N 0.9689118001 0.0237376077 1.8431981363
C 1.6448757461 -0.9970364135 2.3876681244
N 2.9641926568 -1.1692857846 2.3517041471
O 0.8731353357 -1.8764141145 3.0130411959
C 1.5195979964 -3.0397874283 3.5738280620
N 1.1555405258 1.9876026531 0.5895064978
C -0.1947243524 2.2810836517 0.2981589591
O -0.4625669832 3.2279838637 -0.4133840199
N -1.1122418385 1.4169038014 0.8434115752
S -2.7860670487 1.4947150963 0.4631182186
O -3.3076242036 0.2550948901 1.0459619240
O -3.3097256347 2.7934770535 0.8690516246
C -2.8154964991 1.4049588901 -1.3388409746
C -3.3284127609 2.5275889443 -1.9848713532
C -3.4476795364 2.5302510329 -3.3669663594
C -3.0497757898 1.4123138334 -4.0918218501
C -2.5301092557 0.3054458809 -3.4336895675
C -2.3940473345 0.2669336749 -2.0423171483
C -1.7665158865 -0.9616878730 -1.4267574007
C -0.2397441763 -0.9301923931 -1.5940200949
C 0.4217511008 -2.1964688036 -1.1137769709
F 0.0922115444 -3.2625555359 -1.8843329091
F 1.7754181406 -2.0859576698 -1.1436500759
F 0.0801850740 -2.5113571287 0.1585772362
H 5.5913310828 0.6127191230 1.4129209079
H 5.5141974196 -0.7985848684 2.5259752371
H 5.3514931039 -1.0280066915 0.7848747233
H 0.7097438085 -3.6196034938 4.0150392967
H 2.0212854286 -3.6096751326 2.7882520780
H 2.2467690922 -2.7453629256 4.3339739391
H 1.8012431384 2.6212773565 0.1385997487
H -0.7799779004 0.6209296844 1.4014096421
H -3.6201955801 3.3879045295 -1.3952782907
H -3.8475029550 3.4027585035 -3.8717432716
H -3.1443302188 1.4000489920 -5.1727813450
H -2.2226406842 -0.5650427242 -4.0076484743
H -2.1620264091 -1.8441291699 -1.9411625226
H -2.0266868372 -1.0607354868 -0.3730566953
H 0.0403321017 -0.8013495880 -2.6443687816
H 0.1963640408 -0.0994311823 -1.0337730316
