45
CONF20
C 3.0028196347 -0.7297038689 3.5063331853
N 1.9340219976 -1.2887028866 2.6748102279
C 2.1382249433 -2.7303972822 2.5181995595
C 1.8963181645 -0.6507786929 1.3536256433
C 1.5088347982 0.8249654251 1.4015660840
C 1.1684532954 1.3614763032 0.0089228281
N -0.0581085008 0.7632368955 -0.5418434595
C -1.2928744688 1.0225334392 0.1055048190
C -1.3841129883 2.1361463480 0.9644715200
C -2.5516120131 2.4492095645 1.6457363036
C -3.6830085811 1.6571881529 1.4805946708
C -3.6046029941 0.5592430547 0.6343026947
C -2.4390795415 0.2066196458 -0.0574231255
C -2.5454258701 -1.0447803230 -0.9080814719
C -1.2441628232 -1.6309749471 -1.4563183874
C -0.6013385818 -0.6891433469 -2.4241620359
C -0.5620435311 -0.9466100104 -3.7951364275
C 0.0360432920 -0.0530491393 -4.6805050536
C 0.5977090699 1.1240421192 -4.1917482825
C 0.5517687823 1.4052743985 -2.8293844898
C -0.0479491213 0.5055342566 -1.9404872245
H 3.0259372398 -1.2503127310 4.4691802627
H 2.8240685910 0.3315126190 3.7008975257
H 3.9996840117 -0.8330590963 3.0341981055
H 3.0989736487 -2.9719422366 2.0229555771
H 2.1319843931 -3.2148217632 3.5003991134
H 1.3279783051 -3.1567600685 1.9169477863
H 2.8698711455 -0.7572212090 0.8305884732
H 1.1510907947 -1.1857725788 0.7527751491
H 0.6608517580 0.9540168164 2.0834654456
H 2.3320089131 1.4335933768 1.7918859379
H 1.1354424148 2.4607842048 0.0208040747
H 1.9780338419 1.0853404084 -0.6739227717
H -0.5242559597 2.7797876974 1.0980739961
H -2.5720873710 3.3180990101 2.2967655139
H -4.6061932621 1.8836243378 2.0041340287
H -4.4781757654 -0.0761703872 0.5063806806
H -3.0567552821 -1.8070030381 -0.3080437467
H -3.2091812601 -0.8357458186 -1.7583183297
H -1.4673902127 -2.5790950040 -1.9547358734
H -0.5578289438 -1.8435338316 -0.6277796837
H -0.9916594226 -1.8735676599 -4.1664558744
H 0.0674884524 -0.2764880919 -5.7422888549
H 1.0636739124 1.8320667799 -4.8703879138
H 0.9765647979 2.3313397507 -2.4556357297
