45
CONF3
C 3.5107031728 1.8279808664 -0.5800653373
C 2.3712403669 0.8962761193 -0.2583597310
C 1.0702123239 1.3452601590 -0.4627486248
C -0.0778029850 0.5699342444 -0.2437498109
C 0.0954135197 -0.7710319188 0.1438648540
C 1.3960985803 -1.2319442975 0.3472965654
C 2.5321430407 -0.4354957672 0.1813778999
C 3.8374591628 -1.0934392893 0.4844123212
O 3.9751669260 -2.2988883745 0.2916831878
C 4.9661960261 -0.2992479496 1.0921373138
C -1.0713492978 -1.7274296326 0.3654549464
C -2.3392227522 -1.1405429906 -0.2652649658
C -2.5802711956 0.3217562476 0.0891844329
C -1.4455132824 1.2275662054 -0.4631503611
C -1.4891996938 2.5720563987 0.2910264132
C -1.6209253602 1.4973712945 -1.9712399111
C -3.9826105084 0.7352340608 -0.3670928938
C -0.8049896897 -3.0910090435 -0.2965845487
C -1.2683277741 -1.9484219380 1.8778975499
H 3.1372153230 2.6868004508 -1.1424729774
H 4.2810570516 1.3381584779 -1.1821619936
H 3.9945652420 2.2103943266 0.3244414227
H 0.9511076813 2.3623874139 -0.8231224111
H 1.5542189607 -2.2551178372 0.6702740576
H 5.5762804646 0.1428021967 0.2966296722
H 5.6004400869 -0.9792150014 1.6643689593
H 4.6066413317 0.5127608600 1.7277925043
H -3.1992401529 -1.7445319848 0.0513480861
H -2.2738208555 -1.2386759214 -1.3579352402
H -2.5455995289 0.4179510300 1.1832935057
H -1.2487238534 2.4276957048 1.3497547413
H -0.7866427726 3.2987279554 -0.1248771323
H -2.4881070716 3.0125390026 0.2223211904
H -2.5264094553 2.0834237993 -2.1545744591
H -0.7695256069 2.0662357543 -2.3561573007
H -1.6889780345 0.5653492755 -2.5411858313
H -4.1822626837 1.7991504059 -0.2113488982
H -4.1313386834 0.5133680630 -1.4292288118
H -4.7316850742 0.1696776033 0.1965485666
H 0.0151608372 -3.6328410877 0.1827628523
H -1.7036472854 -3.7128603483 -0.2157452306
H -0.5665452930 -2.9679617781 -1.3583742549
H -1.4694990011 -1.0093447895 2.4019703570
H -2.1091195462 -2.6301245941 2.0507209481
H -0.3699622608 -2.3927333722 2.3188778777
