41
CONF344
C -3.6950242645 -1.5272891067 -0.0552663633
C -3.5024147481 -0.5114837076 1.0756010735
C -4.7440313839 -0.4459320318 1.9608615794
N -3.1955311172 0.8504630347 0.5903876627
C -1.8613635682 1.0208833650 0.0033009067
C -0.8505667567 1.2951273655 1.1212647143
O -1.3429395819 2.3339285638 1.9692214481
C 0.4892895016 1.7652613498 0.5828125521
O 1.0318205036 0.6714536226 -0.1650963735
C 2.2579698064 0.8216442625 -0.7435546052
C 3.0275728638 1.9824453662 -0.6431492162
C 4.2750306648 2.0374656981 -1.2654302669
C 4.7535680528 0.9490320008 -1.9850594260
C 3.9706914876 -0.2019563773 -2.0809761944
C 2.7221465629 -0.2903810793 -1.4717136931
C 1.8959686861 -1.5431425446 -1.5633748918
C 1.9624008859 -2.4443039102 -0.3571826540
C 2.6935060469 -2.2432524977 0.7367396840
H -3.8710294282 -2.5283408710 0.3521366036
H -4.5638477085 -1.2497055252 -0.6644292226
H -2.8191867143 -1.5817849214 -0.7086925750
H -2.6512755784 -0.8292588521 1.6928659927
H -4.5868595235 0.2341083501 2.8034876087
H -4.9937357329 -1.4372471602 2.3513989770
H -5.6026034234 -0.0846348889 1.3818624830
H -3.9034226845 1.1251656837 -0.0830713088
H -1.5209362896 0.1618753621 -0.5942427116
H -1.8876850099 1.8968321551 -0.6571595016
H -0.6851103720 0.3759558719 1.7077343860
H -2.3103653047 2.2023229385 1.9495919722
H 1.1559262603 2.0301323904 1.4144763564
H 0.3531690757 2.6448096330 -0.0628517965
H 2.6691043124 2.8413901010 -0.0888205185
H 4.8677174657 2.9433837059 -1.1817827029
H 5.7226822281 0.9925911874 -2.4711342863
H 4.3339906496 -1.0581528114 -2.6440193102
H 0.8422652855 -1.2905639290 -1.7416672147
H 2.2158084215 -2.1215081548 -2.4401104604
H 1.3442258644 -3.3394868939 -0.4281018469
H 3.3209564706 -1.3619284106 0.8469944542
H 2.6821186022 -2.9552779266 1.5561486809
