39
CONF37
C 2.2299253639 1.6566215240 -0.9839187541
C 0.7865074971 2.1682422847 -0.9561160317
C 0.0772862277 1.2318124450 0.0571203704
O 0.9880532123 0.1194443417 0.2460190498
C 2.0470560268 0.1831960608 -0.6948981693
O 1.6850913058 -0.4565701529 -1.9228120868
C 1.5834254443 -1.8678648612 -1.8436752484
C 2.8242408488 -2.5092765555 -2.4356266925
F 3.9520451123 -2.1637271690 -1.7672629976
F 2.7270622796 -3.8599959520 -2.3949198145
F 3.0130344429 -2.1565104019 -3.7288420648
C -0.1144928759 1.8326505704 1.4677168504
N 1.1194897468 2.3744798781 2.0089352632
C 2.1065005732 1.7225699919 2.6559343426
N 3.1099592542 2.5517134883 2.9188505892
C 2.6718953296 3.7289341917 2.3892764798
N 1.4716769661 3.6731007636 1.8262722268
C -1.2757002708 0.7098055706 -0.4200584929
C -2.3256861143 1.5354358205 -0.8401193294
C -3.5525675776 1.0314919260 -1.2603702472
C -3.7399313005 -0.3427154984 -1.2484734344
C -2.7410212778 -1.2052294007 -0.8218225028
C -1.5294867455 -0.6651041766 -0.4105073460
Cl -5.2811787562 -0.9918606431 -1.7818754253
Cl -2.1692971048 3.2898950431 -0.8648786201
H 2.8281074868 2.1019086900 -0.1837429179
H 2.7308294778 1.8339142854 -1.9370318188
H 0.3252056254 2.0618237211 -1.9402883763
H 2.9025324553 -0.3245104263 -0.2369918779
H 0.7233476202 -2.1997221276 -2.4346294793
H 1.4670961909 -2.2287362398 -0.8151325225
H -0.8585868136 2.6304982335 1.4550426040
H -0.4579494927 1.0364637568 2.1344283409
H 2.0440639406 0.6735723648 2.9128379536
H 3.2416654830 4.6491957941 2.4241428906
H -4.3388056669 1.7006202555 -1.5875500212
H -2.8999501608 -2.2770768109 -0.8072126939
H -0.7465333515 -1.3307769560 -0.0710323030
H 0.7228214149 3.2136226180 -0.6560817171
