70
CONF564
C -0.0560754888 -1.7531940484 1.9386574374
C -0.9736683122 -2.7168811191 2.7323641982
C -1.3372428734 -2.1071447019 4.0457720669
C -1.6932762291 -2.6057940605 5.2722856758
N -1.8967742431 -1.5448753143 6.1530232298
C -1.6575219755 -0.3533753444 5.5029283882
C -1.6875847096 0.9850665936 5.8955273112
C -1.3526828129 1.9250523264 4.9265306800
C -0.9998943625 1.5723432438 3.6063686389
C -0.9804456180 0.2408327808 3.2115791141
C -1.3110221046 -0.6978024547 4.1838567713
C -0.6696300131 -0.3216481977 1.8398814674
C 0.2276176652 0.6091802070 1.0269088270
C 0.5054402141 -0.0044295033 -0.3504096612
C 1.1292591842 -1.3791536573 -0.1440731303
N 0.1957330312 -2.2596467452 0.5735915586
C 0.7384526898 -3.6282135105 0.5584478772
C 0.7885571871 -4.1967148722 -0.8270790372
C 1.8620211533 -4.7503437557 -1.3821618767
C 1.4435631096 0.8873263572 -1.1437585831
O 2.6505774568 0.6359972877 -1.1492192411
N 0.9052446119 1.9869210343 -1.7995872865
C -0.5472716959 2.2639256512 -1.8546431982
C -1.1584620966 1.9226070170 -3.2151165045
C -1.2311715639 0.4260750414 -3.5021301344
N -2.0480847064 -0.3167831277 -2.5370078122
C -3.4689078332 -0.0055356603 -2.6605064836
C -1.8328378061 -1.7538994123 -2.6831163946
C 1.6908659107 2.9970152724 -2.4846503230
O 1.1261631113 3.9882250843 -2.9306865654
N 3.0122791734 2.7619323274 -2.6061961095
C 3.8817778489 3.7751627634 -3.1909007583
C 4.2299741351 4.8946125637 -2.2120055352
H 0.8988027808 -1.6578219248 2.5002762765
H -1.8664063013 -2.9177813935 2.1220026715
H -0.4724813010 -3.6736578528 2.8999293843
H -1.8218732089 -3.6243547947 5.6104236453
H -2.1542541984 -1.6440694232 7.1185013343
H -1.9514850121 1.2912703306 6.9025351042
H -1.3596323344 2.9762308289 5.1967709872
H -0.7452276887 2.3660653403 2.9123444317
H -1.6199996804 -0.4349083914 1.2920637802
H -0.2444927696 1.5921617157 0.9309694621
H 1.1789938068 0.7592251868 1.5557355925
H -0.4455523580 -0.1427982606 -0.8773691284
H 1.3605142495 -1.8330889437 -1.1127435032
H 2.0891042886 -1.2798086423 0.3957802614
H 1.7419693043 -3.6834846834 1.0268850650
H 0.0729642186 -4.2742324423 1.1389190683
H -0.1537321607 -4.1635162849 -1.3736114400
H 2.8143502491 -4.7837550533 -0.8589026757
H 1.8262960688 -5.1888957810 -2.3740409132
H -0.6806831831 3.3286143909 -1.6536312823
H -1.0508641483 1.7006481332 -1.0717324250
H -2.1559557475 2.3744290282 -3.2606503443
H -0.5729547988 2.4089756435 -4.0012759292
H -0.2143830850 0.0103147640 -3.4641873305
H -1.5924399462 0.2692543160 -4.5388622009
H -3.6542692652 1.0524219671 -2.4560863717
H -4.0334756087 -0.5882445156 -1.9258174842
H -3.8686053840 -0.2390291585 -3.6673668562
H -2.3885044151 -2.2921879762 -1.9082530012
H -2.1494343888 -2.1367766196 -3.6733671876
H -0.7705789118 -1.9845277328 -2.5503238390
H 3.3789546238 1.9480686036 -2.1193694761
H 4.7897379302 3.2649434439 -3.5298316298
H 3.3814239805 4.1911755660 -4.0709235189
H 4.7412938141 4.4972850936 -1.3298886425
H 3.3203968935 5.4075187924 -1.8888905952
H 4.8875101577 5.6274963679 -2.6904852087
