51
CONF96
C -2.9854913963 -1.4600072788 -1.4249561371
N -1.9381319835 -2.1947266661 -0.7149586828
C -2.3687253918 -3.5917758802 -0.5632724519
C -1.3129632867 -4.4450689257 0.1241317963
C -0.9900488654 -3.8646531852 1.4969625268
C -0.5831658063 -2.4030388143 1.3429379684
C -1.6419830007 -1.5836028937 0.5943295929
C -1.1965923942 -0.1212562200 0.4560765728
C -0.0774055019 0.0849234770 -0.5681973504
N 0.3304511694 1.4881732742 -0.6229624610
C 0.6194815673 2.0719038009 -1.8738586083
C 0.9682572887 1.3106920906 -2.9950264734
C 1.1967894472 1.9236444721 -4.2237659073
C 1.1249106964 3.3057569523 -4.3487743999
C 0.8286342116 4.0788200561 -3.2298886189
C 0.5610478503 3.4690108010 -2.0093995051
S 0.0651116358 4.4396929690 -0.6043975275
C 0.8769778910 3.4782091945 0.6496619668
C 0.8978400673 2.0832742859 0.5209040586
C 1.4910171341 1.3169384207 1.5317892220
C 2.0203763386 1.9299104416 2.6680854548
C 1.9921589528 3.3237300881 2.7859458433
C 1.4413993013 4.0863399432 1.7666479321
S 2.7542775500 1.0368766756 4.0175242909
C 2.7443723720 -0.6876006235 3.4323987475
H -2.6613163498 -0.4480176261 -1.6811131547
H -3.9218488502 -1.3814491376 -0.8381585376
H -3.2159615468 -1.9782998297 -2.3610960398
H -2.5818384692 -3.9879468160 -1.5632571980
H -3.3149555628 -3.6497651321 0.0170605986
H -1.6788838059 -5.4746027552 0.2087739356
H -0.4071311995 -4.4664887504 -0.4950844351
H -0.1947161173 -4.4357244243 1.9890044784
H -1.8790896659 -3.9324713651 2.1393259993
H -0.4266771051 -1.9407110674 2.3250009674
H 0.3687216869 -2.3540190222 0.7982604027
H -2.5617753588 -1.5834344756 1.2215889232
H -0.8796729955 0.2240896056 1.4454238189
H -2.0371558570 0.5202205855 0.1716889435
H 0.7739475081 -0.5871542085 -0.3830308626
H -0.4605498189 -0.1826264700 -1.5531438642
H 1.0690724443 0.2348256870 -2.9122376321
H 1.4504826876 1.3103106980 -5.0821629128
H 1.3113803084 3.7843470637 -5.3038811708
H 0.7864872138 5.1609614442 -3.3015435382
H 1.5282079333 0.2419105179 1.4231469874
H 2.4105023910 3.8085975551 3.6617573098
H 1.4324153978 5.1688172014 1.8443476558
H 3.2240838882 -1.2711222229 4.2215943283
H 1.7261549319 -1.0598865650 3.2899853571
H 3.3215192580 -0.7965269398 2.5098122084
