24
CONF231
C 2.6671219557 0.9243687471 0.6487390260
C 1.2373359809 0.5129980184 0.9596175489
C 0.5370722930 -0.0308281932 -0.2938628992
C -0.9583989883 -0.2668665377 -0.0588290881
C -1.6528081845 -0.7557268181 -1.3584544946
C -3.1338291451 -0.8687500900 -1.1214302181
O -3.9334216753 -0.2735388970 -1.8200317555
O -1.3772681933 0.1095823136 -2.4384957306
O -1.1692038569 -1.2172296696 0.9799711015
O 1.1747090764 -1.2815306584 -0.5962991425
O 0.5778605581 1.6913031842 1.4461807101
O 3.3600666906 1.3431450703 1.8265982709
H 3.2183827218 0.0757935034 0.2378681783
H 2.6489793281 1.7303346251 -0.1024303194
H 1.2433990604 -0.2673349809 1.7328388852
H 0.6587095968 0.6843803744 -1.1170697081
H -1.4262548252 0.6718401091 0.2578450155
H -1.2791783302 -1.7753211980 -1.5676913197
H -3.4543069235 -1.5074175671 -0.2801558722
H -2.2404182210 0.4151000125 -2.7687256589
H -0.5781012226 -1.9643308544 0.7979963975
H 1.1480145310 -1.4187125888 -1.5513854579
H -0.0921481679 1.4266500635 2.0879210697
H 2.8236854330 2.0420917300 2.2249784460
