47
CONF28
C -0.6464686074 -0.9598487669 3.0066079061
C -1.4530154221 -0.8820928266 1.7301020793
C -2.8682211062 -0.4062920499 1.7999110221
C -1.7972663700 0.5487286911 1.2784628001
C -1.8262311569 0.8962083849 -0.1470448997
O -2.3813609948 0.2833247065 -1.0324497518
O -1.0871786888 2.0335047190 -0.3670461420
C -0.9843240172 2.4511655649 -1.7520246946
C -1.2671153820 3.8824238998 -1.7921853640
N -1.4928932864 5.0131213879 -1.8477713597
C 0.3818669282 2.0928003590 -2.3042809078
C 0.8170704725 0.7780467312 -2.1469842444
C 2.0578367028 0.3890504936 -2.6311973863
C 2.8456682467 1.3213260513 -3.3063648496
C 2.4163453145 2.6234337533 -3.4869720483
C 1.1827642510 3.0145819589 -2.9744199316
F 4.0438308305 0.9401724178 -3.7765216255
O 2.5103970780 -0.9026437705 -2.5232933375
C 2.5376425869 -1.4796662547 -1.2647997938
C 2.3854237650 -2.8615868254 -1.2132758026
C 2.4735496844 -3.5084184599 0.0141543544
C 2.7066979772 -2.7843143872 1.1807003884
C 2.8566975699 -1.4020938685 1.1108350349
C 2.7719516402 -0.7381671150 -0.1091095585
C -3.5407068048 -0.1120027124 3.0828120780
C -4.4613053935 0.8417790534 3.2225653430
Cl -4.9379993179 1.8752163065 1.9133296727
Cl -5.2771092555 1.1516285964 4.7252504780
C -1.0810213109 -1.9279609998 0.7053233091
H -0.8163996363 -1.9224306683 3.5029767458
H -0.9042845981 -0.1618372566 3.7081298617
H 0.4210124774 -0.8872058002 2.7765582400
H -3.5162893974 -0.7647254216 1.0005418835
H -1.4659656604 1.3402791354 1.9412383945
H -1.7649028938 1.9261481443 -2.3203326322
H 0.2029477412 0.0394482617 -1.6423813518
H 3.0587036383 3.3232397351 -4.0094010156
H 0.8526992679 4.0405040952 -3.0964983109
H 2.2066306949 -3.4077959182 -2.1326765829
H 2.3555359002 -4.5863078035 0.0567338605
H 2.7754622694 -3.2936852408 2.1357592638
H 3.0555582792 -0.8293452171 2.0112332646
H 2.8968253004 0.3374954638 -0.1653748928
H -3.3065805781 -0.7113107249 3.9579176525
H -0.0264418910 -1.8304451014 0.4247075175
H -1.6948719384 -1.8590242679 -0.1939590775
H -1.2151645964 -2.9244263746 1.1401445393
