50
CONF108
C 0.3040193562 -1.8545475735 -1.4057973468
C 1.5217045241 -1.0328743622 -1.7526758778
C 1.9774206479 -0.0779559858 -0.8377368414
C 3.1582923043 0.6426643569 -1.0983408415
C 3.9202226331 0.3999972972 -2.2132298153
C 3.5062917892 -0.5621906799 -3.1569960080
C 2.2618773298 -1.2398718108 -2.9559206130
C 1.8762944476 -2.0824724752 -4.0725766102
N 2.7114737700 -2.3425467967 -5.0742750292
C 3.9158708254 -1.7249767569 -5.0743849938
N 4.3297399383 -0.8023148505 -4.2165234368
N 4.7772809560 -2.1130586537 -6.0650648518
N 0.6522354889 -2.6532378212 -4.1822039919
C 1.2350117178 0.2186605547 0.4405301717
N -0.0284521414 0.9057333040 0.1586813845
C -1.0398336797 0.9482990024 1.1055060365
C -0.7597366959 0.7562865453 2.4668158761
C -1.7950178530 0.8575325325 3.4010270247
C -3.1033351409 1.1528364308 2.9998784091
C -3.3708300342 1.3299153083 1.6322260747
C -2.3520789587 1.2322190884 0.6872864276
O -4.6727646518 1.5951102347 1.3270905849
C -4.9997165142 1.7965914315 -0.0537164851
O -4.1100292910 1.2923340199 3.9335965856
C -4.7736534216 0.0473520719 4.2286002321
O -1.6229974068 0.6877807322 4.7428083203
C -0.3016503160 0.3855783855 5.2091058005
H -0.6060487400 -1.4774482157 -1.8908994888
H 0.4351876331 -2.9013856211 -1.6876059627
H 0.1102947924 -1.8258236567 -0.3332662186
H 3.4826345302 1.3883747539 -0.3776375685
H 4.8527630360 0.9266837555 -2.3872935020
H 5.5554932357 -1.4999110606 -6.2519076576
H 4.3711776213 -2.5703949720 -6.8663093046
H 0.4419629071 -3.0756304248 -5.0742668784
H 1.0536613893 -0.7082297151 1.0093067613
H 1.8668001346 0.8516160926 1.0755912630
H -0.3512556229 0.8029683925 -0.7923246657
H 0.2503966319 0.5494475201 2.7903282484
H -2.5501917233 1.3694230969 -0.3689461940
H -4.7835924656 0.8993824083 -0.6455111652
H -4.4532259006 2.6523386094 -0.4668038063
H -6.0707327069 2.0003755346 -0.0751634278
H -5.2377488277 -0.3653483870 3.3247396902
H -4.0644992903 -0.6789666864 4.6432518085
H -5.5453751429 0.2709192833 4.9686501851
H 0.0625710660 -0.5555018249 4.7807613347
H 0.3962715896 1.1959025073 4.9685532368
H -0.3883745696 0.2861908468 6.2915246231
H -0.1295184092 -2.2973781582 -3.6625561630
