34
CONF91
C -2.1977780131 -0.5845863382 1.4268898210
C -1.1387963183 -0.1887850596 0.6201050077
C 0.1968388871 -0.4043872483 0.9743667663
C 0.4218370166 -1.0350614175 2.2026128845
C -0.6089930616 -1.4502939261 3.0386520120
C -1.9140027947 -1.2153208341 2.6302121410
Cl -3.2313466221 -1.7315504279 3.6694104862
Cl 2.0641061673 -1.3274868632 2.7660457247
C 1.3334627085 0.0880397011 0.1076232214
C 1.7987142676 1.4933286243 0.5539220217
N 0.7210686155 2.4701325883 0.5684754608
C -0.0588470342 2.8365627198 1.6050901131
N -0.9960813789 3.6851134212 1.1987312721
C -0.7401842082 3.7961529092 -0.1347743786
N 0.2890926627 3.0767211883 -0.5657805377
C 1.0281813811 0.0693094431 -1.3818162735
O 0.7154533798 -1.3191258137 -1.7148866793
C 0.1341875349 -1.5309190211 -2.9019039373
C -0.1078844535 -3.0341157222 -3.1258554570
F 1.0864780357 -3.6894432189 -3.0646834055
F -0.8997346073 -3.5057448660 -2.1197347432
F -1.0825565529 -0.8930377712 -3.0187311295
F 0.8895499907 -1.0596070905 -3.9524585364
H -3.2215715992 -0.4029257859 1.1222506182
H -1.3705700546 0.3077457591 -0.3160577675
H -0.3955480441 -1.9401456198 3.9806256326
H 2.2000316733 -0.5644476979 0.2593146312
H 2.5875931195 1.8596448087 -0.1092612676
H 2.1967398566 1.4360416119 1.5696527238
H 0.0980946287 2.4719813026 2.6123811206
H -1.3154665773 4.4233883203 -0.8042346385
H 0.1897077097 0.7122727346 -1.6576998196
H 1.9139887094 0.3759424506 -1.9458921766
H -0.5857647179 -3.2253929669 -4.0925905143
