46
CONF43
C -4.9801091855 -1.1487415695 1.5276651691
C -3.6939742139 -1.8469479344 1.9019719310
C -2.6495798869 -2.1149585012 0.8660979708
C -2.3794344191 -1.0719431830 1.9769811049
C -2.2405496694 0.3396295976 1.5822192462
O -2.8858010453 0.9252188943 0.7331980366
O -1.2360634208 0.9237171218 2.2866826140
C -0.8674113593 2.2763709911 1.8701731783
C 0.0376256939 2.2273439154 0.6706859412
C 1.3654312712 1.8287674158 0.8336016625
C 2.2057982873 1.7539271053 -0.2716746291
C 1.7437048397 2.0768884179 -1.5469157110
C 0.4175283762 2.4680455215 -1.7009004355
C -0.4366917101 2.5438877627 -0.6035992932
O 3.5263446162 1.4336760132 -0.0173669880
C 4.2633829396 0.7607214738 -0.9787233762
C 5.5715898972 1.1872695254 -1.1825989954
C 6.3810448750 0.4923562740 -2.0777166833
C 5.8846973007 -0.6117932101 -2.7670674517
C 4.5715401312 -1.0267428263 -2.5495999336
C 3.7538214248 -0.3474633525 -1.6516154944
C -2.8063052455 -1.6921744501 -0.5391927693
C -1.7730870250 -1.4431614636 -1.3405502955
Cl -1.9499651956 -0.9715376911 -3.0074508613
Cl -0.1225721072 -1.5193412378 -0.7923152151
C -3.8649972441 -2.8967939225 2.9800734090
H -5.7030126127 -1.8922948970 1.1740768203
H -5.4052504113 -0.6590665750 2.4100964382
H -4.8414459518 -0.3938953618 0.7544710740
H -2.0514237871 -3.0141499370 1.0029120558
H -1.6828006994 -1.3909929561 2.7444519250
H -0.3502971786 2.6853282232 2.7401872391
H -1.7714876682 2.8536991269 1.6661944652
H 1.7557346382 1.5809300276 1.8163113693
H 2.4104203665 2.0291642161 -2.4008519513
H 0.0514971197 2.7231655192 -2.6904962017
H -1.4708383641 2.8439393062 -0.7326444636
H 5.9411091233 2.0511353387 -0.6399860490
H 7.4026749222 0.8219988305 -2.2388748323
H 6.5169053171 -1.1477901789 -3.4671825503
H 4.1789000601 -1.8914489700 -3.0755608405
H 2.7339756322 -0.6712436637 -1.4745702477
H -3.8011883392 -1.5840781731 -0.9607265963
H -4.2569433792 -2.4418661540 3.8959343321
H -2.9166786309 -3.3882600355 3.2150395031
H -4.5758167802 -3.6604943684 2.6461799817
