27
CONF164
C 3.0727015483 -1.2549590598 0.3917850993
C 4.1663880467 -0.9752632398 -0.6426445199
C 4.5609326198 0.4951920636 -0.7519379635
O 4.8709280411 1.0868032708 0.5118338400
C 1.8105330120 -0.4249620214 0.1397935613
C 0.6482680759 -0.8986687562 0.9793207149
C -0.6300803616 -0.0017689414 0.9389931216
C -1.1730443500 0.3285465575 -0.4855834476
C -2.6329692531 0.8838077469 -0.5167969881
F -3.5176582251 -0.0820061566 -0.2495314213
F -2.8858515869 1.3640876751 -1.7441068388
F -2.7802452358 1.8750538192 0.3722431315
F -1.1469756610 -0.7820896494 -1.2610508967
F -0.3675254805 1.2649582578 -1.0478613519
F -0.3383660872 1.1735957573 1.5516471492
F -1.6149635598 -0.6186246430 1.6380665204
F 0.9999551589 -0.9526033079 2.3027360504
F 0.2721152356 -2.1652917577 0.6212397535
H 2.8232587830 -2.3209307092 0.3658683099
H 3.4477105569 -1.0328669888 1.3944963298
H 5.0525172273 -1.5720337435 -0.3878934142
H 3.8418661203 -1.3156516301 -1.6357759313
H 3.7316297290 1.0892792868 -1.1508266393
H 5.4001051807 0.6037818735 -1.4558081947
H 1.5102091763 -0.4921326775 -0.9119519158
H 1.9887292221 0.6298573322 0.3722432639
H 5.6421696429 0.6353777090 0.8725444959
