45
CONF13
C -0.6645886238 -3.4725288230 1.2817560084
C -0.0678439425 -2.4217353551 2.2309680722
C 0.9338066652 -1.4806863775 1.5622136834
C 1.5212721879 -0.4413976269 2.5173761972
C 2.4127098169 0.5951250126 1.8223715570
C 1.6471156492 1.5341692522 0.8877197609
C 2.5512415287 2.5488139094 0.1901850804
C 1.7971985390 3.4984510816 -0.7254783270
O 1.1724165017 2.7476902320 -1.8031148087
C -0.1777581651 2.6223553043 -1.7793715041
O -0.8982563885 3.1220699002 -0.9462030067
C -0.6622687860 1.7873498585 -2.9438854431
C -1.8552763435 0.9093388122 -2.5598873560
C -1.4997628476 -0.0908956060 -1.4615094121
C -2.6404751037 -1.0418668906 -1.0929598042
C -2.3363129584 -1.8617995169 0.1661162268
C -1.2297557955 -2.9033595857 -0.0258858576
H -1.4519373676 -4.0236907647 1.8129764312
H 0.1114507103 -4.2079080319 1.0318349073
H -0.8721307139 -1.8227360594 2.6771154143
H 0.4177011630 -2.9386108620 3.0692237157
H 1.7480671447 -2.0656038209 1.1100268360
H 0.4361365319 -0.9614450793 0.7363859350
H 0.7011402210 0.0784403626 3.0327144069
H 2.0989961843 -0.9531008321 3.2980564369
H 2.9293501703 1.1956253945 2.5827870006
H 3.1976457342 0.0754525992 1.2545400760
H 1.1261676091 0.9503435592 0.1205223230
H 0.8688861461 2.0634063315 1.4540793727
H 3.3220755762 2.0242072263 -0.3889933518
H 3.0779047218 3.1599788232 0.9360010961
H 1.0246683263 4.0520297551 -0.1844883571
H 2.4782571246 4.2006814651 -1.2153693759
H -0.9455806820 2.4917999984 -3.7370108641
H 0.1679298866 1.1883128214 -3.3299360052
H -2.2014299217 0.3771318578 -3.4545496430
H -2.6785817397 1.5487759253 -2.2227628081
H -0.6160119490 -0.6627473805 -1.7746450991
H -1.2099290502 0.4675749575 -0.5613310871
H -3.5491658257 -0.4497111306 -0.9243086036
H -2.8568633480 -1.7123183013 -1.9365873769
H -2.0560315563 -1.1605520708 0.9623077269
H -3.2463113458 -2.3678737151 0.5134187017
H -1.6193779290 -3.7281125716 -0.6366799717
H -0.4064879726 -2.4704440489 -0.6048781098
