47
CONF50
C -2.8390369743 2.0817381176 2.1556188483
C -2.2142005424 0.8123774124 1.6214134545
C -3.0641503591 -0.4149694971 1.3986027429
C -2.6188024182 0.4240578294 0.1970461382
C -1.6411714295 -0.1629661827 -0.7300507926
O -0.9125072343 -1.1102196724 -0.5234267897
O -1.6401414756 0.5335312201 -1.9096746843
C -0.6373112883 0.0997185003 -2.8752520498
C -1.1968613759 0.4122713990 -4.1881758629
N -1.6156265202 0.6510783065 -5.2370906025
C 0.6799596810 0.7949361393 -2.6275434753
C 1.6993586952 0.0878445176 -1.9934492119
C 2.8921964712 0.7281977484 -1.6744889062
C 3.0456858167 2.0701910626 -2.0242030466
C 2.0470161706 2.7782910805 -2.6674664859
C 0.8500486941 2.1378811118 -2.9654785398
F 4.2079263304 2.6838260276 -1.7234290328
O 3.9576070830 0.1018964353 -1.0847295052
C 3.7003624887 -0.8931640299 -0.1441433766
C 2.7615054158 -0.7068315248 0.8662126011
C 2.5937307481 -1.7082991387 1.8175841091
C 3.3605952048 -2.8713254795 1.7643892921
C 4.3028099781 -3.0320316461 0.7512646221
C 4.4761746351 -2.0429774934 -0.2141591365
C -4.4894925249 -0.4588954336 1.7305792602
C -5.1405074121 -1.5303852143 2.1846850196
Cl -4.3978387907 -3.0817559407 2.4619355565
Cl -6.8439548848 -1.4930889123 2.5610112167
C -0.7928280526 0.5954699390 2.0864591129
H -2.9317550939 2.0200490271 3.2454876440
H -3.8266994472 2.2781041679 1.7339398029
H -2.1956340351 2.9348098935 1.9173372786
H -2.5233221586 -1.3518758821 1.4887663281
H -3.3600608932 1.0687922986 -0.2626506839
H -0.5146625913 -0.9867222706 -2.8028484660
H 1.5643227879 -0.9554357838 -1.7309710984
H 2.2127517641 3.8200614338 -2.9193979970
H 0.0550609294 2.6869922968 -3.4596857759
H 2.1744179527 0.2047850386 0.9070732133
H 1.8644038978 -1.5718476514 2.6100430706
H 3.2255416773 -3.6467391227 2.5110719269
H 4.9048700428 -3.9338767988 0.7038080105
H 5.2013318574 -2.1520232544 -1.0135932017
H -5.0794446638 0.4428617877 1.5993648276
H -0.7706652751 0.5846210024 3.1813963185
H -0.1535048538 1.4167222649 1.7430349933
H -0.3774977152 -0.3456750287 1.7234134299
