27
CONF128
C 3.1740693487 -0.7411014853 0.8291099310
C 3.9250056163 -0.1757413122 -0.3778077999
C 5.3252399964 -0.7700199102 -0.4836793351
O 6.0282847150 -0.3316265155 -1.6454884683
C 1.8367585202 -0.0620601554 1.1429001264
C 0.8058802164 -0.1970897892 0.0389107892
C -0.6349280074 0.1509784548 0.5208521310
C -1.6985927539 0.3341450221 -0.6098249934
C -3.1801552747 0.2537355066 -0.1172358286
F -3.3692031098 1.0601218704 0.9380577128
F -3.5081847481 -0.9973806428 0.2237628240
F -3.9884359402 0.6487504830 -1.1112654039
F -1.5369847621 -0.6200431780 -1.5543766665
F -1.5265103216 1.5491833288 -1.1764986924
F -0.5792264262 1.3093317223 1.2299957878
F -1.0495147149 -0.8365453824 1.3586270315
F 0.7826535047 -1.4737023353 -0.4470560306
F 1.0926829578 0.6351237442 -1.0128850624
H 3.0115170861 -1.8159454955 0.6930459402
H 3.7980301828 -0.6336828796 1.7253832255
H 3.3853950462 -0.3856903327 -1.3065029247
H 3.9966320166 0.9180154514 -0.2901429013
H 5.2623816236 -1.8602063046 -0.5745126826
H 5.9008839675 -0.5498273769 0.4310103148
H 1.9741985825 1.0069444134 1.3322481285
H 1.4065330257 -0.5014916885 2.0495750678
H 6.1179271968 0.6263128544 -1.5951603916
