44
CONF268
C -2.7064809738 -3.4265533727 -2.7866271348
S -3.1897465565 -1.8958604268 -1.9685522351
O -3.9538588907 -2.2538259352 -0.7539654102
O -3.8340906003 -1.0189390632 -2.9720271717
C -1.6426609389 -1.0870095430 -1.4442118737
C -1.7266414191 0.0842869327 -0.6751466813
C -0.5175140727 0.6885432859 -0.3060065376
C 0.7232647735 0.1533235757 -0.6758419894
C 0.7503676355 -1.0263088803 -1.4181231637
C -0.4253691572 -1.6385483614 -1.8225668324
C 2.0233261688 0.8398418823 -0.3941217620
O 2.1809608705 2.0232896405 -0.6153226430
C 3.1422777458 -0.0537402778 0.1549049192
C 3.5598930662 0.4968713697 1.5359878283
O 3.1918066519 -0.0790791823 2.5376155638
C 4.4389644234 1.7107132235 1.5194169840
C 5.6365619191 1.5042378893 0.5789754503
C 5.1885925384 1.1457934563 -0.8469317003
C 4.3233657839 -0.0771546324 -0.8345019759
O 4.5081139558 -1.0653799485 -1.5146815115
Cl -0.5653070808 2.1156218757 0.7024462417
C -3.0342938028 0.6732431281 -0.2178195768
O -3.1901153667 0.3117674958 1.1663704371
C -4.1668701983 1.0594556645 1.8582183447
C -5.5561193288 0.4612075116 1.7031629340
F -6.4485536277 1.1497079418 2.4564451519
F -5.6003978192 -0.8302749918 2.0992971929
F -6.0004487876 0.4958073405 0.4220221408
H -3.6641869520 -3.8894912314 -3.0423117277
H -2.1391698076 -3.2045848666 -3.6920368743
H -2.1537187261 -4.0584277663 -2.0887876267
H 1.7024903212 -1.4582355530 -1.7100856440
H -0.3674428670 -2.5405662714 -2.4164898663
H 2.7767384265 -1.0709559023 0.2957795542
H 3.8383353888 2.5530812289 1.1505533206
H 4.7580433682 1.9264133460 2.5412869225
H 6.2829020160 0.7117588868 0.9723658029
H 6.2261607197 2.4235579233 0.5457959660
H 6.0400790341 0.9693144846 -1.5075207395
H 4.5911321553 1.9747966523 -1.2500630252
H -3.0026629476 1.7657222464 -0.3184339058
H -3.8704594758 0.3049926298 -0.8146257811
H -3.9191730820 1.0241155678 2.9237438907
H -4.2080933881 2.1074715401 1.5308920674
