30
CONF3
C 4.8625921093 -0.3346715647 -0.1767920668
C 3.5058377553 -0.2167719333 0.5139749767
C 2.3545368296 -0.0273969305 -0.4729452721
C 0.9917473777 0.0994237033 0.2056780848
C -0.1562698681 0.2789089806 -0.7872902789
C -1.5167257937 0.5015458092 -0.1338064902
C -2.0363114520 -0.6625887344 0.7211715524
C -3.5167694294 -0.3197964034 0.9083528975
C -3.9564932241 0.2174524667 -0.4710860890
C -2.6566379420 0.7253247898 -1.1519477446
H 4.8791814132 -1.1877521023 -0.8637127208
H 5.0835473830 0.5646790638 -0.7617434151
H 5.6726007334 -0.4710921896 0.5461284016
H 3.5205285719 0.6270674554 1.2163334573
H 3.3193052506 -1.1143648612 1.1181254762
H 2.5427892046 0.8682728958 -1.0816866372
H 2.3350477075 -0.8734099759 -1.1744810238
H 1.0085657606 0.9520197047 0.8994809368
H 0.8112975892 -0.7925967989 0.8200625912
H -0.2171126386 -0.6048554355 -1.4395363359
H 0.0688321946 1.1299438725 -1.4457664896
H -1.4486930418 1.3868977790 0.5169368151
H -1.5018239860 -0.7784258855 1.6689723595
H -1.9308424317 -1.6016221576 0.1584657609
H -3.6094735306 0.4669919657 1.6666687863
H -4.1192321516 -1.1687559016 1.2452298692
H -4.7120158389 1.0028424346 -0.3785211874
H -4.4063047719 -0.5852357302 -1.0638921109
H -2.4483535752 0.1442823925 -2.0583185890
H -2.7233508927 1.7736832697 -1.4583972107
