85
CONF317
C 4.7967782511 2.2606186314 -4.0465734246
C 4.7336244849 0.8033840213 -3.5910054254
C 4.4632694197 0.6062228621 -2.1030373765
C 5.4229650395 1.3301098297 -1.1574977040
C 4.9462418425 1.1194392869 0.2821820937
C 3.5001044887 1.5766658037 0.4359983519
C 2.5915044962 0.8839614260 -0.5849202680
O 3.0954474000 1.0544606564 -1.8899691098
C 1.1727976399 1.4649227140 -0.6160267554
C 0.3827692315 1.0590105696 0.6156271836
C 0.3975145082 -0.4472631013 0.7605944249
C 1.8341448103 -0.9422738052 0.8201258472
O 2.5418407594 -0.5430691172 -0.3645220507
C 1.8979256265 -2.4680568149 0.9206710156
C 1.4040501356 -2.9126706976 2.2652715090
C 0.4529618741 -3.8076959084 2.5689945478
C -0.3118955208 -4.6461351249 1.5779099383
C -1.8137590374 -4.2636070348 1.4218005363
C -2.0005672589 -3.2195118776 0.3692990700
C -2.6100680683 -2.0290300229 0.5106627719
C -2.7762606761 -1.1458539037 -0.6243442524
C -3.3332707402 0.0748133831 -0.7061017831
C -3.4378660256 0.8487517127 -1.9776168170
O -4.7434836403 1.4641190905 -1.9331365106
C -5.1949719558 1.5357582415 -0.5671490321
C -4.0907762183 0.8861535563 0.3245919216
C -3.2198477648 1.9845392315 1.0385258100
C -3.1671130399 3.2991563039 0.3016261811
C -4.2437850015 3.8170877809 -0.2955607023
C -5.5148701268 3.0062510771 -0.2983448454
O -6.2883193541 3.1793783865 0.9054134355
C -4.2690682392 5.1565407408 -0.9582653858
C -1.8440606559 1.4682070824 1.4139901101
O -1.5639607758 1.0420235542 2.5176901083
O -0.9794920541 1.5581866443 0.3930467586
O -4.6490576205 0.1215000497 1.3877688223
C -2.6287011573 -5.5110623542 1.0377413349
C 0.1128317089 -4.0870279108 4.0102618361
C 6.8609729890 0.8507720207 -1.3446084408
H 4.8903344670 2.3148472384 -5.1354979030
H 3.8919483239 2.8046080237 -3.7589294036
H 5.6569071006 2.7815984544 -3.6148312090
H 3.9432302070 0.2765274022 -4.1390213674
H 5.6712460812 0.2929118520 -3.8376447498
H 4.5091481528 -0.4707658190 -1.8805123220
H 5.3688833499 2.4062150514 -1.3753643689
H 5.0352534191 0.0556494732 0.5426908038
H 5.5894397007 1.6758232176 0.9738561796
H 3.4296264929 2.6551017144 0.2492493226
H 3.1382283530 1.4064962646 1.4542939458
H 0.6697407020 1.0632593296 -1.5031863393
H 1.2285432105 2.5536612113 -0.7085382225
H 0.7620675434 1.5441702190 1.5223031647
H -0.0931648505 -0.8977596715 -0.1094457320
H -0.1370229682 -0.7678584577 1.6560102837
H 2.3359892128 -0.5202829141 1.7056813750
H 1.3248726366 -2.9088394536 0.0985637413
H 2.9492615471 -2.7627908784 0.7927942169
H 1.8928547070 -2.4107190370 3.1026887736
H -0.2705358750 -5.6851183009 1.9321260725
H 0.1577301848 -4.6337146477 0.5890241007
H -2.1935510832 -3.8795680110 2.3760321697
H -1.6316959632 -3.4949316818 -0.6227475566
H -2.9723428498 -1.7161294030 1.4867106398
H -2.3714064280 -1.5390906040 -1.5588089877
H -2.6675260584 1.6357376393 -2.0345975840
H -3.3724176165 0.2212475516 -2.8712364601
H -6.1108716758 0.9379730445 -0.4530440969
H -3.7202269481 2.1341121433 2.0030548198
H -2.2353276647 3.8572040096 0.3387991617
H -6.1714436791 3.3425624080 -1.1087641321
H -5.6822995370 3.2249056483 1.6554963458
H -5.0583016748 5.7824113253 -0.5236201541
H -4.5030074858 5.0499461469 -2.0248115037
H -3.3128296810 5.6758465655 -0.8569079495
H -5.1220778888 -0.6258737832 0.9951384411
H -2.5451747689 -6.2750995011 1.8177605579
H -3.6856594588 -5.2624241137 0.9027528389
H -2.2543935560 -5.9374038441 0.0997475339
H -0.9544605798 -3.9280605618 4.2056227042
H 0.6823343949 -3.4489508911 4.6907352131
H 0.3212486345 -5.1357234323 4.2578359803
H 7.2533599379 1.1099563255 -2.3323857735
H 6.9238587988 -0.2379241891 -1.2274113357
H 7.5130808769 1.3074818530 -0.5927746690
