53
CONF118
C 3.4639063941 2.4887560050 -0.9278477600
C 2.5853618890 1.2441208222 -0.7558928077
C 3.4676401575 -0.0088204579 -0.9162545803
C 1.5345323091 1.2145317683 -1.8748722629
O 0.6456348063 2.3200947447 -1.7137713635
C -0.3114571704 2.4131705543 -2.7631548850
C -1.3315056015 1.2953216234 -2.7583998364
C -1.7860289440 0.7622405226 -1.5514305131
C -2.7451885422 -0.2412958030 -1.5689915606
C -3.2810810875 -0.7225311779 -2.7569754297
C -2.8288907333 -0.1826990363 -3.9580002906
C -1.8529657842 0.8110207327 -3.9595486635
O -3.2308399895 -0.7437242275 -0.3640203860
C -2.4743024240 -1.6890935203 0.2949909466
C -2.9156878732 -2.0408310589 1.5715488150
C -2.2130800633 -2.9936095161 2.2985139792
C -1.0714989425 -3.5939129302 1.7664748831
C -0.6465808213 -3.2370542805 0.4899290987
C -1.3430584406 -2.2882951762 -0.2575442392
C 1.8804438448 1.2022153838 0.6001937434
C 1.0041545079 0.1518473576 0.8951440138
C 0.3176882788 0.0707771690 2.1019073468
C 0.5424093863 1.0613216309 3.0490946790
C 1.4089055715 2.1135656445 2.8036055303
C 2.0653259135 2.1820399272 1.5785194105
O -0.1026273829 1.1225907712 4.2988774399
C -0.5546625200 0.0300051848 4.9272150388
F -1.6047538441 -0.5522908839 4.3026885310
F -0.9710479573 0.4118298717 6.1421411359
Br 0.8373338428 -1.3971326487 5.1816124529
H 3.9254722660 2.4674441413 -1.9200194618
H 4.2670547020 2.5111726501 -0.1846469554
H 2.8827426072 3.4107439188 -0.8437005851
H 2.8805824177 -0.9288512112 -0.8408023481
H 4.2352302946 -0.0266498948 -0.1367490881
H 3.9663271791 0.0023109762 -1.8914519007
H 2.0423854407 1.2824323721 -2.8510958766
H 0.9747849343 0.2674933555 -1.8510459672
H 0.1904685175 2.4477137780 -3.7425109612
H -0.8191146071 3.3732924207 -2.6115675971
H -1.3868112052 1.1137478268 -0.6045838486
H -4.0296255803 -1.5074393675 -2.7318578235
H -3.2315666613 -0.5492507350 -4.8969976359
H -1.4934899335 1.2157577204 -4.9015405517
H -3.7981650124 -1.5585276023 1.9791250851
H -2.5550278109 -3.2600990997 3.2936873184
H -0.5212693864 -4.3308161037 2.3417975639
H 0.2386785086 -3.6978391705 0.0620646644
H -1.0046328999 -2.0167192858 -1.2512185011
H 0.8241062865 -0.6303661791 0.1658682674
H -0.3671859987 -0.7506421955 2.2745437632
H 1.5609691564 2.8721724632 3.5637575689
H 2.7300077093 3.0190043116 1.4031931295
