65
CONF575
C -1.6935980882 2.4004280034 -2.7518347569
C -3.1171312329 2.2618019218 -2.2183204418
C -3.2795875772 2.7970110078 -0.7888137727
C -4.7360113726 2.6964208624 -0.3113285971
C -2.3786510433 2.0811348169 0.1970297378
O -1.6022294544 2.6324074803 0.9549618610
O -2.5686718612 0.7484543581 0.1550206361
C -1.8589541050 -0.0763978245 1.1315161487
C -2.7336577913 -0.2475080452 2.3617817874
C -2.0273835395 -1.1145446246 3.4149028304
C -1.4084061310 -2.3251057962 2.7804207423
C -1.2005267587 -2.4711025850 1.4585565248
C -1.5793752033 -1.4053428909 0.4510166078
C -0.4937772570 -1.3119375813 -0.6406038181
C -0.4591943554 -2.6590452507 -1.3908284621
C -0.2886809133 -3.7861203861 -0.4061982630
C -0.6046361548 -3.6739140538 0.8958656687
C 0.5935494695 -2.7084915615 -2.5021028557
C 0.8845563941 -0.9228836504 -0.0553346341
C 1.4900698891 0.2938798983 -0.7541554069
C 2.8287464793 0.7110598155 -0.1708527954
C 3.9360789425 -0.3055719195 -0.3606145137
C 5.2580807318 0.2919249480 0.0703922123
C 5.5580334380 1.4960445800 -0.8125267456
C 4.3990358399 2.4436919643 -1.0152691243
O 4.5512830353 3.5804792290 -1.4174948533
O 3.1441770771 2.0024185308 -0.8137422390
O 6.2681712996 -0.7137141800 -0.0637956563
C -0.9840204966 -0.3227353568 4.2234235562
H -1.3709812573 3.4470968986 -2.7409583438
H -0.9839388042 1.8261023239 -2.1460120700
H -1.6222719411 2.0340555390 -3.7802870825
H -3.8101284492 2.8201318278 -2.8592998164
H -3.4340038140 1.2128615376 -2.2458615829
H -2.9641108056 3.8458581482 -0.7628255114
H -5.0821118099 1.6593527886 -0.3493281722
H -4.8459512315 3.0625840365 0.7141796005
H -5.3765999761 3.2997064287 -0.9614084635
H -0.9278617497 0.4355278951 1.3891383142
H -2.9817002168 0.7335390592 2.7818919753
H -3.6697900529 -0.7291376066 2.0531552261
H -2.7888483161 -1.4603349832 4.1280807942
H -1.1008426936 -3.1279812602 3.4505120563
H -2.5122975556 -1.7263694058 -0.0388409553
H -0.8062450446 -0.5379692265 -1.3533516121
H -1.4413123870 -2.7778523772 -1.8771087133
H 0.1282982570 -4.7200002582 -0.7796333310
H -0.4257170044 -4.5054928020 1.5750281754
H 0.5236105888 -3.6537045065 -3.0500170773
H 0.4424427530 -1.8889190061 -3.2123342604
H 1.6095320161 -2.6306684047 -2.1014940480
H 0.7970409514 -0.7068131621 1.0173525702
H 1.5642479557 -1.7776937152 -0.1236026582
H 1.6162077085 0.0944992072 -1.8262575391
H 0.8000737749 1.1414424092 -0.6594269017
H 2.7142761600 0.9397264553 0.8975341073
H 3.9907614510 -0.6183891451 -1.4120331595
H 3.7103947390 -1.1862365567 0.2481741069
H 5.1853121067 0.6102361136 1.1222087652
H 5.8214548730 1.1314274960 -1.8155850610
H 6.4063568270 2.0815710487 -0.4469373875
H 7.1007942852 -0.3454834664 0.2586674556
H -0.4948288894 -0.9686922724 4.9594589636
H -1.4613978872 0.5060418508 4.7565387685
H -0.2071546840 0.0872343808 3.5696113263
