45
CONF62
C -0.4428318091 1.1781793604 -2.4720008493
C -1.5076052023 1.0887341587 -1.4275000661
C -1.8005253161 -0.0179114016 -0.7347047315
C -2.8681567425 -0.0732831835 0.2748616475
C -2.6228637794 -0.6640261674 1.6997580982
C -3.5480335057 -1.3446288929 0.7027372665
C -3.2118423983 -2.6672359785 0.0489191558
C -5.0180636844 -1.2287437573 1.0580379171
C -1.2735175490 -1.0469610815 2.1413863186
O -0.7402333803 -0.5584019140 3.1229768540
O -0.6595604766 -1.9712296906 1.3619983604
C 0.7273249053 -2.2661589035 1.6870486626
C 1.6286509597 -1.2328750685 1.0757883353
C 2.3292934118 -0.2964577068 1.8276160003
C 3.1132795248 0.6774665323 1.2210168758
C 3.2575808017 0.7498349984 -0.1585459505
C 2.5670861668 -0.1971156599 -0.9086853847
C 1.7750744765 -1.1608607636 -0.3075416202
F 1.1345184986 -2.0530866925 -1.0844425228
F 2.6752823726 -0.1892480468 -2.2485869068
C 4.0738228641 1.8184546687 -0.8219711030
O 3.1833470458 2.8740149037 -1.1910976819
C 3.8847349229 3.9207323721 -1.8668457368
F 3.7488032941 1.5648345604 2.0066956836
F 2.2714605296 -0.3205250708 3.1679336337
H -0.8511547185 1.5474441162 -3.4204750829
H 0.0221924604 0.2048674690 -2.6516182371
H 0.3417938741 1.8858154006 -2.1738864946
H -2.0738578242 1.9998069851 -1.2280179598
H -1.2321499046 -0.9239551679 -0.9284707718
H -3.4808373103 0.8251139410 0.3182596193
H -3.1219492538 -0.1011265129 2.4820357366
H -2.1759184736 -2.7454720392 -0.2736018713
H -3.8593204861 -2.8008713149 -0.8247478233
H -3.4138872449 -3.4885117325 0.7450582997
H -5.2461660250 -0.2617332961 1.5152462062
H -5.3041034697 -2.0199639677 1.7599952458
H -5.6297629276 -1.3357119393 0.1555023313
H 0.8605119011 -2.3124658074 2.7676287366
H 0.9083921171 -3.2456127517 1.2427005448
H 4.5708827391 1.4092566451 -1.7130230617
H 4.8462311960 2.1886395268 -0.1345318569
H 4.6593371079 4.3567208278 -1.2201463916
H 4.3550051895 3.5483188954 -2.7879292907
H 3.1477359213 4.6859388089 -2.1181630132
