65
CONF959
C -4.7373698293 3.1110087232 -0.0395740704
C -4.3859194665 2.3525430512 -1.3180199379
C -2.8725035464 2.3235746678 -1.6408624045
C -2.3117504782 3.6965564715 -1.9984160847
C -2.1203045780 1.7137912933 -0.4764864797
O -1.3640054849 2.3143179696 0.2625694524
O -2.4197473734 0.4043984096 -0.3462646805
C -1.8166837970 -0.3264417552 0.7654366323
C -2.8302624254 -0.4531362976 1.8892470988
C -2.2059398059 -1.1805611388 3.0907337853
C -1.4232172684 -2.3799738259 2.6427269443
C -1.0532349718 -2.6225175223 1.3709387338
C -1.4025467814 -1.6871100437 0.2318983998
C -0.2426778528 -1.6221837912 -0.7843053105
C -0.0480278444 -3.0364658877 -1.3706762676
C 0.1222997141 -4.0358948202 -0.2567328089
C -0.3155704340 -3.8185375033 0.9953708736
C 1.0943549547 -3.1259762957 -2.3867909744
C 1.0527899297 -1.0531498693 -0.1620136651
C 1.6749262125 0.0525731265 -1.0162759606
C 2.8554696754 0.7272213432 -0.3397999698
C 4.0227674016 -0.1958881395 -0.0553923466
C 5.2134898579 0.6126244317 0.4113027797
C 5.6216164746 1.5621292580 -0.7072189546
C 4.4809369693 2.3181627616 -1.3470175384
O 4.6573826766 3.3183404727 -2.0148693862
O 3.2283759115 1.8412625620 -1.2341584305
O 6.2723732276 -0.2954571749 0.7330149491
C -1.3344516993 -0.2471694141 3.9506041732
H -4.2603538527 2.6566595456 0.8365329428
H -4.4226972246 4.1576277569 -0.0881470075
H -5.8184932784 3.0955941575 0.1272418304
H -4.7484822868 1.3220198844 -1.2440288027
H -4.8939464673 2.8091258591 -2.1755100535
H -2.7375222102 1.6441603798 -2.4920427094
H -2.3931102660 4.3942669297 -1.1614278505
H -1.2553766223 3.6274999369 -2.2726556459
H -2.8635013177 4.1082325568 -2.8486915813
H -0.9479389051 0.2421181725 1.1046026350
H -3.1807305345 0.5412483075 2.1881145678
H -3.6943102977 -1.0177123900 1.5178015807
H -3.0250597300 -1.5352408365 3.7322241858
H -1.1345501402 -3.0927728296 3.4153751523
H -2.2719146285 -2.1120568703 -0.2948237139
H -0.5611596515 -0.9605635947 -1.6001616891
H -0.9757894144 -3.2861538121 -1.9112228094
H 0.6415396216 -4.9638366686 -0.4906764523
H -0.1362838462 -4.5583358336 1.7733947723
H 2.0657128311 -2.9285515353 -1.9215475935
H 1.1337006104 -4.1286215953 -2.8247341003
H 0.9491776763 -2.4044178869 -3.1973502504
H 0.8507172237 -0.6508661948 0.8388525672
H 1.7714290507 -1.8645691258 -0.0080289725
H 2.0024473353 -0.3487610892 -1.9834227655
H 0.9174486897 0.8191308798 -1.2224761912
H 2.5254210317 1.2042798747 0.5930060176
H 4.2870383666 -0.7679009457 -0.9550858860
H 3.7234852455 -0.9025934256 0.7243389433
H 4.9313651262 1.1897520033 1.3058786222
H 6.0766987792 0.9700130697 -1.5138230896
H 6.3654570692 2.2957747574 -0.3837061417
H 7.0119164190 0.2199704528 1.0796867222
H -0.8980451374 -0.7933405383 4.7928622081
H -1.9345656800 0.5776324301 4.3486077700
H -0.5122938421 0.1731461446 3.3620740360
