54
CONF1046
C 7.5844976368 -2.6304976481 1.1573236653
C 6.4450053388 -2.4061732636 0.1519616089
C 5.1500609671 -2.9437517071 0.6837598184
C 4.2943702376 -2.2117771293 1.4888783036
C 3.1119997135 -2.8127667503 1.9778014980
N 2.8346048930 -4.0846909462 1.6466174640
C 3.7256204586 -4.7107315703 0.8793414334
N 4.8570770979 -4.2279391824 0.3799562252
N 2.2591181065 -2.1533238240 2.8034228173
C 0.9327702027 -2.6656450736 3.1118358328
C -0.0670181889 -2.3970737102 1.9999768656
O -0.1480421809 -0.9792560412 1.8648785659
C -0.9185152394 -0.4641064761 0.8529300822
C -0.8800172659 0.9309862949 0.6984285030
C -1.6321754497 1.5282614268 -0.3255054374
C -2.4228979162 0.7375311169 -1.1832151096
C -2.4434859223 -0.6411447583 -0.9874150714
C -1.7022269796 -1.2524711182 0.0154606818
C -3.2930971650 1.3299261170 -2.2625368768
C -4.5863895822 1.9097529660 -1.6710503449
O -5.4592774031 2.4648738936 -2.6454998860
C -5.0594735644 3.7532194225 -3.1020724901
C -6.1369624783 4.2773946686 -4.0283292025
C -1.5552301871 3.0260256952 -0.4838276314
C -0.0232278916 1.7637899992 1.6133388465
Cl 4.6469776600 -0.5427333890 1.9253743183
H 7.6923496747 -3.6963691240 1.3769974261
H 7.3885022536 -2.1026760524 2.0952202411
H 8.5308592940 -2.2642854042 0.7495577257
H 6.6619613862 -2.9397087995 -0.7772267398
H 6.3514887032 -1.3401663376 -0.0737770744
H 3.4889733825 -5.7447836667 0.6272795673
H 2.3799707800 -1.1540347003 2.8606642474
H 0.5917382152 -2.1835797930 4.0340414020
H 0.9979120627 -3.7425321649 3.2839364102
H -1.0475498892 -2.8192464159 2.2667871665
H 0.2765713052 -2.8549573503 1.0622224911
H -3.0518071369 -1.2593061246 -1.6418835745
H -1.7404138155 -2.3286883703 0.1267484926
H -3.5670795683 0.5527546225 -2.9831910046
H -2.7556863060 2.1014913666 -2.8234252829
H -5.1453168212 1.1031102722 -1.1839233128
H -4.3467185121 2.6605617663 -0.8993903604
H -4.0958091985 3.7006254862 -3.6343422713
H -4.9252965442 4.4277854896 -2.2383998221
H -6.2630596788 3.6072632933 -4.8830898235
H -7.0923461886 4.3480566734 -3.5014426376
H -5.8668639382 5.2700089741 -4.4008598170
H -2.0615362641 3.3736332493 -1.3842102411
H -0.5146829357 3.3635829202 -0.5329946582
H -2.0147071406 3.5396526065 0.3691662556
H 0.2685505943 1.2026727463 2.5005423572
H 0.8950608739 2.0879456235 1.1072981688
H -0.5491302846 2.6666606212 1.9358601093
