57
CONF2
C -2.4092495970 4.8378755889 0.0486146913
C -2.1430204714 3.3755864093 -0.1808496285
C -1.3704884348 2.9469990340 -1.2601264201
C -1.1281743514 1.5926659491 -1.4968385260
C -1.6744040244 0.6440933277 -0.6148992419
C -2.4788882288 1.0492463653 0.4660957111
C -2.6920771284 2.4120968646 0.6684425974
C -3.0958153802 0.0344529954 1.3877335737
C -1.4029817391 -0.7841342795 -0.8352584553
C -0.2730043578 -1.4797467950 -0.6463589788
C -0.4043320463 -2.9108760393 -1.0386984271
C -0.2204777318 -3.9219153954 0.1003732238
C 0.0155812008 -5.2371387201 -0.6454875380
C 0.9814724243 -4.8230655059 -1.7651843390
C 0.5456820118 -3.3924677344 -2.1639105624
O -1.7883548954 -2.9720195968 -1.5033803968
C -2.3752953827 -1.7427211916 -1.3875274329
O -3.5261174354 -1.5577072191 -1.7250160856
O 0.9386809066 -1.0259532330 -0.2096169009
C 1.0706185826 -0.6822990905 1.1383750943
O 0.1691628672 -0.8351430890 1.9210791798
C 2.4350875708 -0.1481528454 1.4289109733
C 2.5257933586 1.4084209051 1.4024797535
C 3.9504320663 1.7705498933 1.8420209001
C 1.5154680285 2.0303385423 2.3720819749
C 2.2767179941 1.9347914852 -0.0135516875
C -0.3145640108 1.1645553513 -2.6884378391
H -3.4072511902 5.1095123525 -0.3154505701
H -1.6817727666 5.4607389731 -0.4778515474
H -2.3757682041 5.0825710127 1.1144016872
H -0.9437002386 3.6838718945 -1.9362338084
H -3.3000120981 2.7300365688 1.5124299541
H -3.8644178608 -0.5471629691 0.8657567674
H -3.5635339483 0.5225861129 2.2456982937
H -2.3435210101 -0.6721910783 1.7496438910
H 0.6806223679 -3.6457886194 0.6622767158
H -1.0744397806 -3.9135622705 0.7824688232
H 0.4225904970 -6.0191336613 0.0011547723
H -0.9293423051 -5.6002608256 -1.0654828943
H 2.0042902404 -4.8011478338 -1.3748886685
H 0.9638911566 -5.5096084962 -2.6153299535
H 0.0011870534 -3.3639031349 -3.1107460136
H 1.3994401657 -2.7156750445 -2.2519989212
H 2.6948752152 -0.4932850075 2.4343474923
H 3.1505430477 -0.5579628199 0.7108612765
H 4.6919502323 1.3319993914 1.1655441794
H 4.1511929664 1.4102540808 2.8567103788
H 4.0776461948 2.8581050783 1.8322708197
H 0.4841653911 1.8356976265 2.0585748988
H 1.6467444175 1.6365227949 3.3858259001
H 1.6575224267 3.1157591451 2.4042059691
H 2.4228335100 3.0201238558 -0.0386157255
H 2.9659837022 1.4781069076 -0.7322209525
H 1.2523959044 1.7297874023 -0.3382541823
H -0.8882256790 0.4862362451 -3.3300584670
H 0.5920883383 0.6280847408 -2.3891010894
H -0.0154293411 2.0313552047 -3.2819083283
