52
CONF419
C 1.5667333663 -2.4320987794 -1.6927541946
C 1.6007404808 -0.9341678468 -1.4947359635
C 2.5637584230 -0.2211937187 -2.4472220904
C 2.7012773947 1.2626908943 -2.0843451473
C 3.0425400068 1.4355727057 -0.5980040481
C 2.1002958602 0.6229333869 0.2914404532
O 2.0114607040 -0.7140172022 -0.1121742031
O 0.8088670044 1.2964978031 0.2596611116
C -0.0820513039 0.8400574501 1.2063944654
C -1.2156585378 0.1822534893 0.8189305873
O -2.0909886364 -0.3220795806 1.7298463316
C -1.8628561683 -0.1877696975 3.0715096740
C -2.7859638642 -0.7733928653 3.9188479525
C -2.5862085623 -0.6217903496 5.2917113542
C -1.4997492824 0.0957088998 5.8083305805
C -0.5895183698 0.6729821381 4.9366221867
C -0.7526663395 0.5367580262 3.5309765417
C 0.1900108673 1.1049735413 2.6028442227
O 1.1898773708 1.7724314310 2.9783511196
O 0.4574214819 1.3590779880 5.4247074955
O -3.5017809866 -1.2027862894 6.1030903588
C -1.6277050595 -0.0746180161 -0.5569960223
C -1.5722112748 0.9487487885 -1.5145455980
C -1.8767421628 0.6880009709 -2.8417764466
C -2.2502640653 -0.6152025262 -3.2266194604
C -2.3384379235 -1.6191570295 -2.2656019173
C -2.0367707541 -1.3560075220 -0.9353715574
O -2.5189604797 -0.8125885866 -4.5422617447
O -1.8389947390 1.6331446423 -3.8202919910
O 4.3873482498 1.0376980786 -0.3327639247
O 1.5082599817 1.9747981510 -2.4454515871
O 2.1223977193 -0.3587109989 -3.7961827863
H 2.5601456796 -2.8624688257 -1.5284905656
H 0.8591477482 -2.8898462845 -0.9956051793
H 1.2459901641 -2.6603822905 -2.7118570369
H 0.5943493952 -0.5186938649 -1.6335144100
H 3.5483705058 -0.7029580291 -2.3890305196
H 3.5049421730 1.7057959035 -2.6820372297
H 2.9713018265 2.4942183910 -0.3285847676
H 2.4708701606 0.6005265012 1.3196398385
H -3.6352155068 -1.3224401456 3.5312617455
H -1.3636910159 0.2030697260 6.8800069879
H 0.9690804554 1.6775130160 4.6267781782
H -3.2758636970 -1.0378366347 7.0295072484
H -1.3198374849 1.9632409253 -1.2172997068
H -2.6341605977 -2.6185787834 -2.5730627301
H -2.0815504804 -2.1529685951 -0.2017492994
H -2.7679560522 -1.7367594772 -4.6842323254
H -1.5550049710 2.4761903611 -3.4401637210
H 4.4351150053 0.0714060692 -0.3581753529
H 0.8352374826 1.7969740985 -1.7707851061
H 1.4152682157 0.2952498638 -3.9147938184
