27
CONF10
C -2.6558227818 1.6761733933 -1.3529723761
C -1.2116405889 1.9581200117 -0.9259209539
N -1.0550833197 1.0529096937 0.2208766222
C -2.2729776672 0.7239436440 0.7193453563
N -2.3231442073 0.0609709474 1.8847076175
N -3.5327513603 -0.3583221904 2.3300565667
O -4.5868687497 -0.2031245692 1.6788094461
O -3.5228598796 -0.9185548816 3.4318401103
N -3.2406224377 1.1861135435 -0.0971353365
C 0.1893032591 1.0270770090 0.9729618501
C 1.2936186642 0.3915439363 0.1671919214
C 2.4982065513 1.0503567877 -0.0471951216
N 3.5176249236 0.5206060037 -0.7436403887
C 3.3392526856 -0.6823367737 -1.2427197585
C 2.1821415553 -1.4460794987 -1.1078472161
C 1.1436012800 -0.8832936940 -0.3839674420
Cl 4.6906061412 -1.3629069739 -2.1617195980
H -2.7026589971 0.8973370972 -2.1240177924
H -3.1726198409 2.5696902582 -1.7071631335
H -0.4842687317 1.7282153383 -1.7079348204
H -1.0736581906 2.9984176881 -0.5980359484
H -4.1679678497 0.7938040932 -0.0296396731
H 0.4729819279 2.0500733695 1.2566927186
H 0.0161278388 0.4565154913 1.8891337379
H 2.6596093756 2.0492231955 0.3545654040
H 2.1042584980 -2.4325427503 -1.5480854729
H 0.2155127518 -1.4314451080 -0.2489595157
