37
CONF10
C -4.0449789910 -0.4759758117 -2.3967088781
C -3.6531147674 -0.7425633107 -0.9615476577
O -2.5291463593 0.1101578326 -0.6439063457
C -2.1466128143 0.0601365270 0.6879618444
C -1.0455905012 1.1146357618 0.9810448034
C 0.1925391698 0.2720085288 0.7799316055
C 1.5220120744 0.6250088310 0.6415642774
C 2.4547044626 -0.4091332892 0.5481496073
C 2.0920691058 -1.7496919433 0.6084209306
C 0.7483309466 -2.1026385655 0.7516739597
C -0.1750433797 -1.0717096469 0.8262651298
O -1.5231032634 -1.2424475343 0.9788716906
O 3.8253172094 -0.0941957053 0.4595813909
S 4.4308223824 0.3097065424 -1.0416582107
O 3.4960025123 1.2207622058 -1.7102823117
O 5.7935503376 0.7491952155 -0.7374297029
C 4.4549820426 -1.2639323093 -1.8992781974
C -1.1130316360 2.3427125304 0.0769689699
C -1.1423029688 1.5293994221 2.4604156251
H -3.2156540824 -0.7036101409 -3.0728626712
H -4.3336569782 0.5704315397 -2.5326306477
H -4.8948797687 -1.1085643057 -2.6688529505
H -4.4780234201 -0.5110041955 -0.2723663030
H -3.3656966364 -1.7916480012 -0.8189997149
H -3.0134365705 0.1246205621 1.3584244277
H 1.8457068715 1.6600387540 0.6139032771
H 2.8588037433 -2.5146262442 0.5447246168
H 0.4428931388 -3.1420297364 0.7990482441
H 4.8896022436 -1.0701090705 -2.8833207291
H 5.0712403845 -1.9554091859 -1.3218525203
H 3.4265335568 -1.6187079021 -1.9939293059
H -0.9801303033 2.0754364580 -0.9730627236
H -2.0753654670 2.8508138142 0.1916773635
H -0.3226794096 3.0438981603 0.3623650710
H -2.0665433430 2.0902327812 2.6346739307
H -1.1342696804 0.6532730710 3.1167395436
H -0.2918495238 2.1655287523 2.7220096706
