41
CONF40
C 0.3361313427 -3.5630413393 -0.5983507288
C -0.1805159684 -2.2112507450 -0.2626690914
C -1.3493658875 -1.8656196122 0.3584896401
C -1.3773100411 -0.4338588140 0.4955066643
C -0.1716302234 0.0709287193 -0.0373921676
N 0.5752711296 -1.0393853207 -0.4908605434
C 1.7999519314 -1.0025825808 -1.1714450823
O 2.0711095425 -1.8124665430 -2.0462684237
C 2.7713927826 0.0344328991 -0.7429998772
C 3.6016596130 0.6157439701 -1.7048945602
C 4.5672725968 1.5408476857 -1.3335083752
C 4.7102446654 1.8506236337 0.0158592835
C 3.9154551545 1.2637376386 0.9956832320
C 2.9359768749 0.3601525953 0.6067960674
Cl 5.9349905760 3.0105688779 0.4970697804
C 0.0496358832 1.4371640755 -0.1324438130
C -0.9222478438 2.3037918322 0.3684882612
C -2.1064245276 1.8061551898 0.9373906773
C -2.3473207022 0.4329448039 0.9929390551
O -3.0942908867 2.5995569809 1.4513308141
C -2.9056207465 4.0177344366 1.3967729656
C -2.4447184357 -2.7646932600 0.8198211258
C -3.6979202223 -2.7471203222 -0.0337277455
O -4.8134123747 -2.9625743682 0.3915389550
O -3.4394772557 -2.5068802478 -1.3338145179
H 1.3752369575 -3.6843175728 -0.2787262930
H 0.3038152083 -3.7516619593 -1.6751775097
H -0.2699973163 -4.3193371124 -0.0963176038
H 3.4783036254 0.3493126621 -2.7492456568
H 5.2010173899 2.0107976823 -2.0765696915
H 4.0585200727 1.5094383883 2.0415222437
H 2.3059969216 -0.1014460029 1.3599704343
H 0.9442336558 1.8501330834 -0.5810729677
H -0.7441311863 3.3692870327 0.3023884370
H -3.2821544598 0.0667127795 1.4060787560
H -2.0173144890 4.3211972563 1.9637818880
H -3.7955973968 4.4518096987 1.8535703754
H -2.8184550951 4.3656655065 0.3604728329
H -2.7593194231 -2.5149091329 1.8378871578
H -2.1174536297 -3.8110792248 0.8416572463
H -4.2815381402 -2.5465127464 -1.8188907630
