56
CONF176
C -0.9836175846 -4.1861174530 1.9866207616
C -0.6920771127 -2.7371880120 2.3773419506
C -1.0539346544 -2.4178643350 3.8271169091
N -1.3205637084 -1.7869570843 1.4406098057
C -2.6671333050 -1.6966889773 1.1493717036
C -3.7797168452 -2.3090613969 1.7368502911
C -5.0357227138 -1.9960258616 1.2324985722
C -5.1976225500 -1.0879002700 0.1701663687
C -4.0987509401 -0.4792707062 -0.4154848306
C -2.8168651065 -0.7901600358 0.0612406238
C -1.5099070181 -0.3365424673 -0.2973756356
C -0.6162674812 -0.9721008742 0.5556097464
C 0.8346695614 -0.8844035437 0.5866938366
C 1.6016154560 -0.8142036708 -0.5101029594
C 3.0936921887 -0.7099733906 -0.4758393282
C 3.6026919100 0.5022813831 -1.2510733614
C 3.2029156741 1.8210975896 -0.6118979598
C 3.5485244128 2.9971169767 -1.5206233735
C 3.1127757322 4.3163420982 -0.9478447245
O 2.6193406627 4.4752428451 0.1543230242
O 3.3247170014 5.3330723412 -1.8035235374
O 3.8867595919 1.9189956694 0.6474109173
O 3.6791234011 -1.8638751177 -1.1238599988
C -1.2159891033 0.6925469144 -1.3030962647
C -0.5489797261 1.8737250637 -0.9498584073
C -0.2848074998 2.8624120545 -1.8920127694
C -0.7072484699 2.6559389869 -3.1943925821
C -1.3847699258 1.5149695756 -3.5878446018
C -1.6358875190 0.5354634368 -2.6309079253
F -0.4565229997 3.6194389103 -4.1219587933
H -2.0380873438 -4.4425496579 2.1139393975
H -0.7038396389 -4.3646650880 0.9441659081
H -0.3944328537 -4.8530926628 2.6226228772
H 0.3836895679 -2.5844275280 2.2628570225
H -0.4779588031 -3.0680278665 4.4920498167
H -2.1146585828 -2.5829628139 4.0311966528
H -0.8114006524 -1.3777600976 4.0633132867
H -3.6880726291 -3.0019910050 2.5635754615
H -5.9111328277 -2.4608748139 1.6752020837
H -6.1963578179 -0.8627294170 -0.1908532857
H -4.2222680142 0.2243219940 -1.2336770777
H 1.3212176899 -0.8666671654 1.5617185053
H 1.1493698875 -0.8575910187 -1.5009769989
H 3.4362635723 -0.6543750209 0.5667879680
H 4.6965654778 0.4496389262 -1.3172671128
H 3.2024497125 0.4594236751 -2.2713224868
H 2.1173280637 1.8220410905 -0.4375507619
H 4.6306706403 3.0413394424 -1.7007643556
H 3.0723236690 2.8800590186 -2.5019108643
H 3.0331827732 6.1583414227 -1.3782040726
H 3.5379418980 2.7100110744 1.0826378492
H 3.3519895868 -2.6465305597 -0.6612609986
H -0.2423803975 2.0228038301 0.0807979807
H 0.2225186392 3.7828475809 -1.6220799514
H -1.7015580532 1.3959843363 -4.6184421720
H -2.1538045062 -0.3728786106 -2.9230534121
