18
CONF16
C -1.8958009990 -1.5420633504 0.9038215438
C -1.3184856176 -0.4725706400 -0.0128659589
C 0.2097575126 -0.4191523135 0.0735727134
C 0.7794350327 0.6164801978 -0.8781804892
O 2.2143182270 0.5644994704 -0.6825127104
N 2.9367685184 1.5041320920 -1.4965838980
O 2.2913000988 2.2039853228 -2.2371038134
O 4.1210374995 1.4508445303 -1.3157760895
O -1.8965624445 0.8122117272 0.2546927384
H -2.9866058313 -1.5475059646 0.8361930880
H -1.5234232683 -2.5350731698 0.6335793451
H -1.6119705048 -1.3504356642 1.9459150598
H -1.6100664257 -0.6871377230 -1.0491408258
H 0.6236276289 -1.4060288903 -0.1642968238
H 0.5099559111 -0.1808612359 1.1023911893
H 0.5417261164 0.3780221799 -1.9213926465
H 0.4061338375 1.6184277606 -0.6500291901
H -1.7911453871 0.9922254854 1.1970259657
