34
CONF1
C 0.1652282973 1.1199585512 -2.3115339168
C -0.6790759130 0.7211406936 -1.1355666270
C -0.2913712961 -0.1427589582 -0.1581823967
C -1.2603817284 -0.6604579721 0.9223831564
C -2.7065653841 -0.2240371232 0.6273574366
C -2.7958579775 1.2194152941 0.1579166328
C -2.0469708644 1.3457440317 -1.1594680365
C -0.8139693817 -0.1249119763 2.2954107840
C -1.2535319755 -2.2013632480 0.9706582566
C 1.0628785478 -0.6594831781 -0.0557721486
C 2.2211955081 -0.0240881245 -0.3408351553
C 3.5231032128 -0.6791030397 -0.1489395321
O 3.6362901859 -1.8539977349 0.2070044807
C 4.7339727405 0.1789342613 -0.4159198787
H 0.9720124822 0.4153934161 -2.5194910782
H 0.6120718145 2.1103225108 -2.1544948393
H -0.4739881925 1.2056004835 -3.1980232122
H -3.3099605978 -0.3916987001 1.5274622544
H -3.1174761009 -0.8715137489 -0.1599714508
H -3.8403548726 1.5237787606 0.0320258127
H -2.3523554958 1.8911079403 0.9029660713
H -1.9307084156 2.3987907339 -1.4512066131
H -2.6277781729 0.8830050304 -1.9731745703
H -0.8591583227 0.9681222296 2.3323079034
H -1.4585554736 -0.5264714821 3.0855944595
H 0.2174338543 -0.4245730782 2.5108653796
H -2.0665177045 -2.5391079909 1.6228909667
H -1.4176693835 -2.6244839520 -0.0261883448
H -0.3227351477 -2.6084006982 1.3748580286
H 1.1756591173 -1.6592789392 0.3608669358
H 2.2354002510 1.0080904253 -0.6764885360
H 4.7099614587 0.5362525592 -1.4522547239
H 4.7068733174 1.0704004812 0.2214740642
H 5.6529013166 -0.3803270615 -0.2368577536
