29
CONF5
C -4.0478742989 -1.2867715378 0.3593136777
C -4.2334801633 -0.0358953747 -0.2195327545
C -3.2163178054 0.5389087205 -0.9778642981
C -2.0118132673 -0.1338097098 -1.1757609917
C -1.8317716978 -1.3892333082 -0.5903032614
C -2.8421500552 -1.9607527975 0.1741578127
C -0.9095009918 0.4689585972 -2.0171035347
O 0.3863335944 0.2834322415 -1.4583167269
C 0.5730184932 1.0492022585 -0.2598508707
C 1.8996769106 0.6743402704 0.3293169419
C 3.0667889524 1.3202925103 -0.0787231278
C 4.3009784955 0.9439030544 0.4407916798
C 4.3782986104 -0.0859961810 1.3744097292
C 3.2186172614 -0.7380750050 1.7849198792
C 1.9865177749 -0.3589957165 1.2627639359
H -4.8363851294 -1.7338734005 0.9561356888
H -5.1667001568 0.4988257397 -0.0729394153
H -3.3597218797 1.5224750447 -1.4181465278
H -0.8866697862 -1.9053955571 -0.7316655479
H -2.6915384409 -2.9363889098 0.6259778596
H -1.1128300810 1.5395758330 -2.1871417767
H -0.8713356112 -0.0240680074 -2.9956220365
H -0.2363261381 0.8361063950 0.4543511684
H 0.5422511218 2.1240165936 -0.5040092885
H 3.0043078304 2.1209621168 -0.8103798894
H 5.2031283801 1.4544165739 0.1187889691
H 5.3404121465 -0.3785991254 1.7828023769
H 3.2750700411 -1.5407263402 2.5134579524
H 1.0790164833 -0.8668353649 1.5784722849
