48
CONF5
C -3.1830673410 1.9380869892 -1.1691267579
Si -2.3454237996 0.8089857781 0.0370028303
O -3.3103319681 0.4438403708 1.3330923054
O -2.0521050288 -0.6190477722 -0.7029153254
Si -1.6052305575 -2.1550947865 -0.2721218866
C -0.8828679546 -2.9599902174 -1.7870468331
C -3.0834334738 -3.0701680241 0.3898180334
O -0.4902418342 -2.0704914692 0.9410878433
Si 1.1380781091 -1.8203815298 1.0776525681
C 1.4295923310 -0.7957135071 2.6036380198
C 1.9904067943 -3.4739106791 1.1606301533
O 1.6835238052 -1.0580402710 -0.2758987490
Si 2.0520499777 0.3838082796 -0.9796112923
C 3.8937847192 0.4613906448 -1.2262903119
C 1.1019589642 0.4987823924 -2.5788214639
O 1.6390010704 1.6293008990 0.0231805329
Si 0.2929499548 2.5090428160 0.3920741094
C 0.6100841094 3.3795209430 2.0032375340
C -0.0829262336 3.7001941048 -0.9900956791
O -0.9582247485 1.4555251781 0.6155769937
H -4.1400507363 1.5081539871 -1.4827957534
H -2.5666032741 2.0867037999 -2.0614690900
H -3.3777647784 2.9185091951 -0.7223401903
H -3.4548779224 1.1488667384 1.9746278146
H -0.5522572041 -3.9799353441 -1.5624209386
H -1.6267786609 -3.0125487515 -2.5895273928
H -0.0213352804 -2.3921369928 -2.1527573441
H -3.8930699759 -3.0844757572 -0.3477368950
H -2.8218887977 -4.1069140677 0.6282755630
H -3.4591048417 -2.5931536382 1.3010581806
H 1.1290321546 -1.3519985428 3.4985038230
H 0.8492545280 0.1313891259 2.5676534733
H 2.4888387314 -0.5351707485 2.7042443819
H 1.6197395338 -4.0619686445 2.0070981244
H 3.0723656822 -3.3496074958 1.2796022414
H 1.8123856358 -4.0464857205 0.2435333522
H 4.4128369360 0.4014344844 -0.2630769602
H 4.2377748058 -0.3700071459 -1.8507804022
H 4.1854958642 1.3979908553 -1.7135225236
H 0.0223781238 0.4595519067 -2.3921823590
H 1.3269508598 1.4332200674 -3.1040972274
H 1.3593953203 -0.3356163625 -3.2404598714
H 0.8213907581 2.6618993061 2.8031293317
H -0.2615969675 3.9735763156 2.2985041689
H 1.4680239037 4.0548629219 1.9158811116
H -0.2702230093 3.1743717543 -1.9317389103
H -0.9638774110 4.3075531343 -0.7562691214
H 0.7659894278 4.3762956761 -1.1415592035
