78
CONF671
C -1.4609939607 -1.6330623669 0.0624857303
C -1.2838526029 -3.0604519112 0.5633996758
O -2.5172919341 -3.3154851017 1.3206910936
C -3.0895574691 -2.1442564939 1.7085302487
O -4.0828082695 -2.1304734612 2.3982571318
C -2.2504876068 -1.0002807920 1.1992316680
C -2.9073153647 0.3186902138 0.7848131287
C -4.1378890028 0.1321828374 -0.0961246202
C -5.3953403203 0.0479712169 0.5045418523
C -6.5238681505 -0.1621695411 -0.2848120048
O -7.8071303690 -0.2645472513 0.1779974918
C -8.0069749251 -0.1912837522 1.5962549637
C -6.4145501967 -0.2832416951 -1.6750704925
O -7.5137662731 -0.4835549492 -2.4622460748
C -5.1544541035 -0.1824742935 -2.2744293983
O -5.1438709125 -0.2968942128 -3.6345770917
C -3.8720239204 -0.1942065747 -4.2872758442
C -4.0227993099 0.0281778301 -1.4841979221
C -1.8558480845 1.1769790734 0.0879508318
C -2.1803270387 2.5364869284 -0.0989384076
C -1.3133783406 3.3129122654 -0.8269589007
C -0.1539335144 2.7881618164 -1.3874160993
O 0.5225519516 3.7642837471 -2.0692220449
C -0.2777275534 4.9622758706 -1.9556480949
O -1.4206104483 4.6420341266 -1.1287456537
C 0.1884608249 1.4702249688 -1.2242784389
C -0.6727557885 0.6525744967 -0.4563612279
C -0.2426612237 -0.7838014533 -0.2291316275
O 0.6192138782 -0.9324060627 0.9415352628
C 1.7308449405 -0.1113055015 1.0220570064
O 2.6449600504 -0.4893118221 -0.0204989239
C 3.8073710964 0.3332101410 0.0185043131
C 4.7201973314 -0.0161553670 -1.1426979664
O 5.9347384180 0.7494385052 -1.0045144051
C 6.5967651457 0.5661461956 0.2338311571
O 5.7532549847 0.8444939626 1.3503339107
C 4.5530421607 0.0545583836 1.3160274554
C 3.6949262194 0.4176529743 2.5125135552
O 4.3101435284 0.0411834359 3.7425145798
C 2.3567157201 -0.3200864326 2.4113338713
O 1.4546242268 0.0764784850 3.4376423430
C 7.2309980482 -0.7986434926 0.3360034800
C 7.6290818481 -1.6310163157 -0.6755924817
C 8.2943716394 -2.7982720056 -0.2097242793
C 8.4083783572 -2.8379093381 1.1525919113
S 7.6920136986 -1.4413246325 1.8886439157
H -2.0818053175 -1.6544283677 -0.8412828261
H -0.4405529638 -3.1650770035 1.2511351828
H -1.2306405970 -3.8118870055 -0.2250507997
H -1.5464342395 -0.7854270574 2.0195021168
H -3.2323667568 0.8419304717 1.6914590726
H -5.4819925340 0.1352520875 1.5799045682
H -7.6882609032 0.7824540229 1.9850322097
H -7.4612486738 -0.9924481406 2.1076401011
H -9.0786811258 -0.3170083833 1.7507216313
H -8.2877808470 -0.5227572310 -1.8805059387
H -3.1900729568 -0.9832989828 -3.9484712578
H -4.0763483807 -0.3178312435 -5.3511751870
H -3.4163335738 0.7875655398 -4.1112966216
H -3.0516415902 0.1399837296 -1.9492024618
H -3.1018547323 2.9448966250 0.3036939757
H -0.6254327394 5.2619057280 -2.9502514114
H 0.3112226316 5.7465282087 -1.4698277703
H 1.0932017484 1.0614883135 -1.6632322687
H 0.3054457536 -1.1491219129 -1.1054675691
H 1.4671514167 0.9545109001 0.8898713633
H 3.5317896451 1.3999458682 -0.0318513987
H 4.2880667305 0.2717464387 -2.1036127270
H 4.9282053801 -1.0946488369 -1.1413914909
H 7.3632196614 1.3479833474 0.2635241550
H 4.8016987817 -1.0180104440 1.3587871192
H 3.5053892309 1.5052487647 2.4920775675
H 5.1283262339 0.5488785238 3.8243749353
H 2.5275799031 -1.3942407198 2.5530902093
H 1.3232446852 1.0329499055 3.3727331800
H 7.4472674581 -1.4102328743 -1.7208595579
H 8.6714250847 -3.5789428587 -0.8600652284
H 8.8577764079 -3.6039380538 1.7707724701
