61
CONF1408
C -2.2631288074 3.1681494990 -1.7024931309
C -3.0742980640 1.8788777310 -1.8260730935
C -3.0436299039 1.0669561807 -0.5329581703
C -3.8334603179 -0.2468848977 -0.5763056464
C -3.2488315131 -1.3052007808 -1.5378913993
C -2.3005887800 -2.1721696253 -0.6556892559
N -2.4501416208 -1.6430643120 0.7044128604
C -3.7647984843 -0.9898476400 0.7584044534
C -2.2381714749 -2.6434591120 1.7443010795
C -0.8688382361 -2.0974930189 -1.1801828525
O -0.5388727093 -2.8052408682 -2.1501394634
N -0.0986468651 -1.1895120645 -0.5726690690
C 1.3093682710 -0.8466521190 -0.8194383341
C 1.5960758175 0.3744928505 0.0626800487
C 3.0227815048 0.9126438935 -0.0243596407
C 3.2079003056 2.0680302385 0.9821854386
C 2.7421499653 1.6737801691 2.3836170606
C 1.3671200667 0.9903768124 2.3729353468
O 1.3202091426 -0.0544729691 1.4154019210
S -0.0184321885 2.2149603647 2.2189560373
C -1.3525884816 1.1500395884 2.8854238886
O 3.7283276730 0.7461550377 2.8599675560
O 2.4400135478 3.2077672033 0.6034370114
O 3.9999805887 -0.1076223695 0.1601359669
C 1.6464529344 -0.5876362087 -2.3082584258
C 0.6750657454 0.3711332540 -2.9885334762
O 1.7818468103 -1.8097464920 -3.0322419566
H -1.2176786715 2.9431989702 -1.4603287844
H -2.2780408276 3.7445158695 -2.6329153420
H -2.6585393106 3.8048116929 -0.9030353487
H -4.1152336968 2.1146739687 -2.0852145187
H -2.6742739156 1.2808734620 -2.6543428580
H -3.4512693552 1.6849552225 0.2792182175
H -1.9993966693 0.8611223096 -0.2655288648
H -4.8734932778 -0.0251402088 -0.8424318848
H -4.0456843338 -1.9366449426 -1.9387884512
H -2.7238972000 -0.8641894206 -2.3891052858
H -2.5931890448 -3.2329965226 -0.7221784025
H -4.5816685910 -1.7329636096 0.8316543542
H -3.8264453113 -0.3261717291 1.6291192838
H -2.3254134398 -2.1744187622 2.7301362595
H -1.2308964483 -3.0658474844 1.6568943868
H -2.9689992084 -3.4702288654 1.6840268025
H -0.5383422375 -0.7839110728 0.2507377185
H 1.9530036483 -1.6708861232 -0.4832152936
H 0.8988122496 1.1868984440 -0.1939212169
H 3.1905742430 1.3299819790 -1.0240182914
H 4.2795285858 2.3077878212 1.0338029329
H 2.7043819280 2.5668399047 3.0210938357
H 1.2147192002 0.4954447626 3.3391650995
H -1.4610426295 0.2512564768 2.2720325424
H -1.1498985633 0.8835588764 3.9262209133
H -2.2777473008 1.7286251676 2.8308925657
H 3.4707565136 0.4489737421 3.7424099071
H 2.7690316456 3.5225641796 -0.2484220310
H 3.9927907070 -0.3360546180 1.1033163644
H 2.6492121533 -0.1492089976 -2.3242946408
H 0.6529905923 1.3423714426 -2.4818859061
H 0.9903521124 0.5321657132 -4.0228885050
H -0.3416145685 -0.0344541912 -2.9951067024
H 0.9541670497 -2.3139627832 -2.8609910652
