45
CONF74
C -0.5573127080 1.9746568398 -1.8911822463
C -1.4659449993 1.6787543831 -0.7425769469
C -1.8623586178 0.4518136449 -0.3848965398
C -2.7748832641 0.2017083444 0.7406475316
C -2.4536048573 -0.8556852745 1.8442261247
C -3.6138241544 -1.0387076693 0.8776297366
C -3.6191854728 -2.1021418380 -0.1986430848
C -4.9761907240 -0.8552082821 1.5190505883
C -1.1511257595 -1.5367864400 1.8878751870
O -0.4123886391 -1.4804219369 2.8562433997
O -0.8241114360 -2.2147071912 0.7600102769
C 0.5164898111 -2.7776881451 0.7158931540
C 1.5040822232 -1.7221555591 0.3103679135
C 2.4562485112 -1.2008473072 1.1792504115
C 3.3196897113 -0.1875203198 0.7814307245
C 3.2954629347 0.3353977861 -0.5051536010
C 2.3522041307 -0.1980145930 -1.3778390001
C 1.4814644909 -1.1988268351 -0.9802562761
F 0.5947674828 -1.6801422430 -1.8701373103
F 2.2863786197 0.2546925060 -2.6418853233
C 4.2020057608 1.4523827606 -0.9277303575
O 3.4907494224 2.6781948368 -0.7408690158
C 4.2840539443 3.7959640651 -1.1475682930
F 4.2028598915 0.2867386407 1.6779626358
F 2.5701797168 -1.6782786990 2.4280625367
H 0.3758294342 2.4381185280 -1.5451041582
H -1.0191162972 2.6864777993 -2.5859819229
H -0.3052918978 1.0654725589 -2.4438513958
H -1.8198250670 2.5350048941 -0.1662097592
H -1.5054937301 -0.4017471534 -0.9554730816
H -3.2002993212 1.1062158695 1.1709460049
H -2.7307828013 -0.5251288340 2.8401232740
H -2.6676473813 -2.2089135482 -0.7148197696
H -4.3888389244 -1.8507053688 -0.9368104350
H -3.8783672691 -3.0722755517 0.2390324889
H -4.9565385749 -0.0771437548 2.2873284016
H -5.3092836290 -1.7908102764 1.9819903055
H -5.7114217385 -0.5698374300 0.7586301676
H 0.7777759014 -3.2068372142 1.6829275172
H 0.4575241669 -3.5607956447 -0.0408930904
H 4.4807087980 1.3293281870 -1.9838049352
H 5.1199961514 1.4443142279 -0.3245846915
H 3.6829577659 4.6909676221 -0.9758513227
H 5.2092677634 3.8573555674 -0.5572127518
H 4.5431414252 3.7277677355 -2.2136259665
