43
CONF102
C 1.7800767107 3.3240069906 -3.2366906157
O 2.1747699220 2.0399137465 -3.7339830664
C 2.2119947727 1.0073534318 -2.8456086286
C 1.9130807929 1.1392020166 -1.4914029708
C 1.9897499241 -0.0323184741 -0.7386600451
C 2.3535030152 -1.2868273903 -1.2807633099
C 2.6555614157 -1.3850938160 -2.6435123170
C 2.5794884113 -0.2384217763 -3.4094749805
N 2.3365003523 -2.2619834292 -0.2924577670
C 1.9558642574 -1.6161887925 0.7827242717
N 1.7448525684 -0.2773665226 0.5940556455
S 1.7674042279 -2.3546358882 2.4159064019
O 1.8261960246 -1.1770649661 3.3812419902
C -0.0545127602 -2.8762078559 2.2404741251
C -0.9692911867 -1.7092982359 2.1062126850
N -1.2895629602 -1.1174376875 3.2699244617
C -2.0603062789 -0.0297177667 3.2402757804
C -2.5489164499 0.5520800111 2.0729491729
C -3.4103402894 1.7771342682 2.0946961592
C -2.2145089598 -0.0854339825 0.8748685567
O -2.7292636357 0.4281695218 -0.2920813051
C -1.7726710402 1.1789533438 -1.0698622112
C -1.4329347723 -1.2482249630 0.8579047259
C -1.1819294798 -1.9634661784 -0.4383333218
H 2.4776773364 3.6796398108 -2.4691468754
H 1.8057365189 3.9950590205 -4.0954466189
H 0.7637457887 3.2888417406 -2.8253898725
H 1.6266193104 2.0795128663 -1.0389730209
H 2.9357690641 -2.3354130494 -3.0855651791
H 2.7992428655 -0.2671018693 -4.4714947267
H 1.4649772626 0.3790769104 1.3098066731
H -0.0499758698 -3.5712477635 1.3978846528
H -0.2343760150 -3.4161195432 3.1737728812
H -2.3077406023 0.4165668366 4.2034248503
H -3.5365518445 2.1375650251 3.1181838517
H -4.3989991254 1.5665185414 1.6740014531
H -2.9726406116 2.5803387179 1.4934507323
H -0.9450204926 0.5447214452 -1.4054064501
H -2.3156443986 1.5627053183 -1.9350533383
H -1.3749182828 2.0135036989 -0.4797590688
H -1.9777029567 -1.7314475381 -1.1494794638
H -0.2343616898 -1.6638258723 -0.8980850589
H -1.1506421360 -3.0460193087 -0.2994015712
