43
CONF48
C 3.6128112823 -2.4891360922 0.5057852424
C 3.3712402177 -1.2116367934 1.2817012282
O 2.2918950036 -0.4264631942 0.7122625974
N 1.0877535397 -1.0549072690 0.9699803170
C 0.0896841542 -0.4957001617 0.4020842402
C -1.2493147221 -1.1022118442 0.4660779816
C -1.4689756999 -2.4421212615 0.0718333330
C -2.7654874654 -2.9630534283 0.0873233489
C -3.8360957098 -2.1647834690 0.4714291573
C -3.6272531863 -0.8475326047 0.8499830275
C -2.3382375225 -0.3086219159 0.8555721416
O -2.1206842924 0.9913466361 1.2110565702
C -1.9320861364 1.1707046732 2.6369364890
Cl -4.9881577498 0.1557202805 1.3126623024
O -0.3850201420 -3.1435563068 -0.3295519036
C -0.5849577892 -4.4909180858 -0.7842641995
O 0.1931222726 0.6084354471 -0.4368255506
C 0.6137169963 1.8093279505 0.0934653737
O 0.8161998835 1.9772549010 1.2716002979
C 0.7492776834 2.8400709711 -0.9577119228
C 0.5285226476 2.5655346156 -2.3125523980
C 0.6738333868 3.5776232714 -3.2540102550
C 1.0376555233 4.8615022529 -2.8521126603
C 1.2582734305 5.1366927119 -1.5029607555
C 1.1155719311 4.1305616975 -0.5573272143
H 2.7405622565 -3.1468073568 0.5578846617
H 3.8295458528 -2.2689598528 -0.5438084131
H 4.4700021218 -3.0191330638 0.9332229005
H 3.1437797209 -1.4095695628 2.3351648002
H 4.2303976065 -0.5376922359 1.2236858237
H -2.9588388871 -3.9843855703 -0.2126513162
H -4.8403643700 -2.5737119422 0.4710471289
H -1.7711970571 2.2382762592 2.7875101567
H -1.0522267550 0.6114784135 2.9714339918
H -2.8221635878 0.8421898236 3.1837744961
H -0.9907147459 -5.1175714005 0.0174827235
H -1.2506061318 -4.5165147034 -1.6543668000
H 0.4048718549 -4.8495508597 -1.0661921630
H 0.2459187035 1.5680709427 -2.6265025066
H 0.5029280981 3.3644394066 -4.3041525978
H 1.1495528480 5.6488389526 -3.5909527769
H 1.5413203522 6.1364315337 -1.1901981717
H 1.2839444769 4.3300388269 0.4951813317
