71
CONF148
C 4.8824525519 -0.9547831930 3.5077988008
C 6.1371612471 -1.5961959052 2.9858623279
C 6.1479265626 -2.2409771118 1.7361698137
C 7.3135350820 -2.8323221766 1.2207362338
C 8.4682611175 -2.7994260654 2.0090080873
C 8.4729745719 -2.1809548321 3.2534630447
C 7.3154366841 -1.5743231671 3.7321943197
C 7.3517459897 -3.4517898469 -0.1462075832
N 4.9517480718 -2.2394023689 0.9724414683
C 4.2707854841 -3.3398058585 0.5670450743
O 4.6128562800 -4.5003780368 0.7973303470
C 3.0369201290 -3.0286175162 -0.2779722865
N 2.4761406605 -1.7092631589 -0.0138015451
C 1.6375392992 -1.7262221457 1.1924528553
C 1.1372735458 -0.3258826026 1.5003966625
N 0.3528686004 0.1970456089 0.3782055343
C 1.1840176399 0.2056853524 -0.8295048698
C 1.6936897048 -1.1929509661 -1.1427062741
C -0.1561266379 1.5364119809 0.7002455520
C -1.1167875557 2.1044123297 -0.3426425274
C -2.2851857222 1.1730719756 -0.6548136517
C -3.3034366692 1.8096147085 -1.6146620013
C -4.3495077836 0.8338728756 -2.1306429248
C -4.9975197068 1.1152255442 -3.3390541654
C -5.9885389198 0.2804833314 -3.8444940417
C -6.3247312891 -0.8473726836 -3.1140557944
C -5.7136726701 -1.1678375534 -1.9162717590
C -4.7217537666 -0.3160217112 -1.4304669047
F -7.2900252592 -1.6756262138 -3.5992226776
C -3.9780614503 3.0200313583 -0.9882984903
C -3.7500230149 4.3046863729 -1.4843096486
C -4.3505281152 5.4217243195 -0.9042475646
C -5.1821627598 5.2229319787 0.1822802025
C -5.4395272258 3.9667113282 0.7074020038
C -4.8312418177 2.8679215750 0.1096033931
F -5.7754563792 6.3034970483 0.7597205674
H 4.0657435393 -1.6819692894 3.5728161640
H 5.0521645406 -0.5346975307 4.5013502064
H 4.5374410587 -0.1455651704 2.8528066925
H 9.3781307770 -3.2514485588 1.6238756305
H 7.3181643960 -1.0826773756 4.7009322136
H 6.9324890891 -4.4630464717 -0.1313987304
H 8.3810065064 -3.5088405509 -0.5080224737
H 6.7581324513 -2.8720107400 -0.8600957406
H 3.3666059908 -3.0781744453 -1.3247734522
H 2.3155279070 -3.8492136692 -0.1260019588
H 0.7751023928 -2.4067413133 1.0583108296
H 2.2302360212 -2.0974559107 2.0364948886
H 2.0052656171 0.3273314046 1.7261217368
H 0.5019951838 -0.3572173007 2.3933979371
H 0.5895470913 0.5559189709 -1.6796814490
H 2.0475245702 0.8920981852 -0.7138199026
H 2.3355202441 -1.1539538714 -2.0299677363
H 0.8343814121 -1.8527701379 -1.3695564219
H 0.6791473024 2.2498870332 0.8502267941
H -0.6857601370 1.4575725666 1.6591140582
H -1.4968957896 3.0548172915 0.0524979620
H -0.5856084363 2.3542696915 -1.2698099348
H -1.9091905027 0.2471241867 -1.1047044446
H -2.7781110613 0.8909441638 0.2847148579
H -2.7476859467 2.1717497512 -2.4891418552
H -4.7213376979 2.0064880620 -3.8966262521
H -6.4879870250 0.4932245570 -4.7836851292
H -6.0042434396 -2.0633437075 -1.3773254215
H -4.2392434286 -0.5679553406 -0.4924231122
H -3.0905544479 4.4411892148 -2.3368344403
H -4.1771792003 6.4225987273 -1.2849744358
H -6.1023490798 3.8568233668 1.5591298372
H -5.0303135459 1.8758360351 0.5051014690
H 9.3821404738 -2.1609634121 3.8466878716
H 4.4577577048 -1.3646411090 0.8135222918
