44
CONF21
C 3.4347097309 3.8650090189 2.2738834132
C 3.0199861773 2.5796917806 1.6418792389
N 2.0728092886 1.8657686745 2.2724518440
C 1.7179251375 0.7397814303 1.6462105396
N 2.2404934946 0.2868780990 0.5004167626
C 3.1635308614 1.0864275529 -0.0360993816
N 3.5953936494 2.2407476929 0.4816859065
O 3.7364065610 0.7430910303 -1.1823338872
C 3.3280331991 -0.5071333842 -1.7954817656
N 0.7245895339 0.0057227926 2.2617286314
C -0.0032813041 -1.1056673209 1.8189451514
O -0.9279557842 -1.5415810952 2.4847463484
N 0.3920651167 -1.6205427421 0.6075747651
S -0.4296089038 -2.8890909267 -0.1765997097
O 0.2516385929 -2.9696151752 -1.4773977978
O -0.4483920692 -4.0645803448 0.6972162862
C -2.1138679279 -2.2976784670 -0.3864766808
C -3.1050036774 -3.0854170110 0.1997850721
C -4.4395968635 -2.7475223054 0.0262960104
C -4.7699432369 -1.6281011359 -0.7318861808
C -3.7698200187 -0.8514095247 -1.3027251027
C -2.4131307288 -1.1570117555 -1.1474015497
C -1.4057275487 -0.2199653780 -1.7729248874
C -1.3434326553 1.1013921396 -0.9899897042
C -0.4767310138 2.1318018720 -1.6616096550
F 0.7905903076 1.6922427188 -1.8842791709
F -0.9685744574 2.5090726435 -2.8697815441
F -0.3714813856 3.2578097581 -0.9111864834
H 3.4559338978 3.7669197568 3.3610871689
H 4.4044514198 4.1885057817 1.8953709564
H 2.6919950851 4.6334617633 2.0270263723
H 3.9272906036 -0.5803370985 -2.7015776847
H 3.5398969507 -1.3440198698 -1.1254768617
H 2.2637343157 -0.4794548585 -2.0427930935
H 0.3810883906 0.3914445822 3.1326983702
H 1.1689447714 -1.1605012721 0.1103450898
H -2.8260296228 -3.9533293830 0.7846072567
H -5.2130755410 -3.3580767684 0.4792300792
H -5.8103559330 -1.3584315271 -0.8815299874
H -4.0388918113 0.0194083203 -1.8942299308
H -1.7285523895 -0.0127808955 -2.7987401734
H -0.4124036663 -0.6642868748 -1.8321709562
H -2.3384875028 1.5451050447 -0.8892201333
H -0.9471640388 0.9462526770 0.0176708608
