27
CONF42
C 3.0994307710 0.2637419518 1.0586132448
C 3.9461802236 -0.6818628112 0.2060954575
C 5.4365865387 -0.3941127504 0.3265019366
O 5.7858179736 0.9329230656 -0.1037479239
C 1.6156116120 -0.1068266108 1.1624962903
C 0.8701028112 -0.0498426420 -0.1512157400
C -0.6787663535 -0.0591760703 0.0277029906
C -1.5078105099 -0.3175204353 -1.2738896375
C -3.0110457040 0.1010186547 -1.1709454142
F -3.6715921897 -0.3847706686 -2.2325016691
F -3.1404194587 1.4327704502 -1.1654405786
F -3.5630443779 -0.3977957595 -0.0553119251
F -1.4751587535 -1.6395758120 -1.5587734454
F -0.9715598763 0.3656123762 -2.3124103221
F -1.0560500037 1.1378717479 0.5508321340
F -1.0044511531 -1.0317814891 0.9182549835
F 1.1809506769 -1.1203067237 -0.9589115258
F 1.1908735421 1.0815206331 -0.8549120278
H 3.4910074655 0.2622376867 2.0830505618
H 3.1967297427 1.2895845245 0.6914062668
H 3.7729317988 -1.7209288259 0.5173209326
H 3.6574409997 -0.6176365187 -0.8504879266
H 6.0091551331 -1.1414106996 -0.2415853804
H 5.7500803336 -0.4533329999 1.3748495188
H 5.5499135558 1.0048415971 -1.0374091168
H 1.1164954142 0.5833564299 1.8516332797
H 1.4922700018 -1.1173617450 1.5643929755
