44
CONF40
C -3.8328209750 2.3274733645 3.0433032795
C -3.2502039764 1.1231835844 2.3474330015
C -4.2371084047 -0.0006986251 2.0484648223
O -3.7516114632 -0.5718270232 0.8164459275
C -2.7329363726 0.2867674188 0.2962488226
O -2.8334908147 1.4955216597 1.0130774585
C -3.0454432206 0.5247980989 -1.1905209704
N -4.3064480702 1.2187920962 -1.3633555838
C -5.5574739010 0.7224374633 -1.2788990217
N -6.4484572336 1.6992817405 -1.3987644058
C -5.6618820412 2.8027961619 -1.5502773889
N -4.3572695540 2.5641909498 -1.5320845611
C -1.3605669466 -0.3733618249 0.4624077306
C -0.1485756058 0.2880610805 0.2354255353
C 1.0836546047 -0.3345769043 0.3953499182
C 1.1144130362 -1.6716930741 0.7808589975
C -0.0672661016 -2.3689939370 1.0115255034
C -1.2785245542 -1.7146030519 0.8514535672
O 2.2869390277 -2.3509191055 1.0109458432
C 3.4550205044 -1.9114754107 0.4042228612
C 3.5422489395 -1.7950879984 -0.9800124678
C 4.7507694512 -1.4254665641 -1.5584140825
C 5.8490118136 -1.1896854913 -0.7375431511
C 5.7691842704 -1.3145207904 0.6437382597
C 4.5545379845 -1.6761485424 1.2191006949
Cl 7.3798198411 -0.7241663730 -1.4700771985
Cl -0.0908649957 1.9787759158 -0.2615600664
H -4.6725284100 2.7272951124 2.4666614572
H -4.1918459964 2.0402057695 4.0361660650
H -3.0759492725 3.1067274859 3.1640642227
H -2.3797010586 0.7304760804 2.8940702879
H -4.2520155324 -0.7728637187 2.8231338179
H -5.2491390430 0.3931043328 1.8864488564
H -2.2624969021 1.1165241531 -1.6652878407
H -3.1009019344 -0.4522453194 -1.6783648257
H -5.7601766815 -0.3309206771 -1.1413350911
H -6.0552592972 3.8028234853 -1.6828984149
H 1.9996548746 0.2186549272 0.2279460102
H -0.0277466269 -3.4092200362 1.3149569658
H -2.2018986639 -2.2512195982 1.0325173200
H 2.6749990447 -1.9927657655 -1.6013071990
H 4.8368374356 -1.3315516299 -2.6348435871
H 6.6366972975 -1.1283128566 1.2662642052
H 4.4601613710 -1.7783275198 2.2946994998
