41
CONF34
C 5.9472200550 -1.0233269641 -2.6016136893
N 5.0331867891 -0.5837222096 -1.5544854010
C 3.7850484756 -1.0307592641 -1.3173520921
C 3.2929800895 -0.3147865649 -0.2308707645
C 4.3565904701 0.5595126144 0.1075868647
N 5.4062799130 0.3792186655 -0.6963674249
C 4.5021750652 1.5830417467 1.1776462908
F 3.6361904002 2.6421283406 0.9850067858
F 4.2027560396 1.0556218155 2.4163662970
C 1.9694898133 -0.4201639946 0.4049340061
O 1.5186549193 0.4601796549 1.1366407796
N 1.2773593578 -1.5685742821 0.1010408024
C -0.0010777259 -1.8766965610 0.6227938944
C -0.2060771993 -3.1120016588 1.2560291452
C -1.4588272243 -3.4600465908 1.7512391352
C -2.5442202838 -2.5838642123 1.6425593678
C -2.3305947750 -1.3619025904 1.0282232165
C -1.0754307782 -1.0045448452 0.5083342074
C -1.2544558330 0.3128776469 -0.2188050920
C -2.1202516915 -0.0050400643 -1.4834875485
C -3.5135990456 -0.3783761833 -0.8905854345
C -3.2945123899 -0.2538651799 0.6535452086
C -2.3272094352 0.9136195446 0.6686059362
C -2.4050358786 2.0994776720 1.2466771247
Cl -3.7670814947 2.5959520314 2.2246884535
Cl -1.1571385101 3.3159701362 1.1036313676
H 6.8691688329 -1.3952719307 -2.1486264553
H 6.1749961469 -0.1870659549 -3.2669508051
H 5.4647397308 -1.8225861755 -3.1645854477
H 3.3360403194 -1.7933580044 -1.9381197638
H 5.5204142507 1.9834072016 1.2116132019
H 0.6322134133 -3.7941621359 1.3642674870
H -1.5867953550 -4.4213598754 2.2387946587
H -3.5215214295 -2.8578166012 2.0274597756
H -2.1869000108 0.8853274446 -2.1144868621
H -1.6718394706 -0.8124822436 -2.0674234467
H -4.2808946183 0.3312600221 -1.2116817301
H -3.8383833941 -1.3869895734 -1.1572574811
H -4.2019362399 -0.1755336063 1.2492918538
H -0.3622027910 0.9044558224 -0.3992152835
H 1.8076517741 -2.3470678023 -0.2647611707
