22
CONF1
C -2.2470251740 1.5223973851 -0.3881885098
C -1.1162881625 0.5265801992 -0.5342249329
C -1.4040815277 -0.7829991583 0.2079469882
N -0.2247806503 -1.6262915902 0.1797413553
C 1.0291238878 -1.0151721940 0.6024383352
C 1.2225442783 0.3054312434 -0.1503798711
O 0.0638820244 1.1345256940 0.0005403364
C 2.4089735806 1.0855154748 0.3752799339
N -0.3217871111 -2.8100880909 -0.4443252383
O 0.7179778860 -3.4427228113 -0.5565681568
H -2.4056670915 1.7633957940 0.6673025187
H -3.1740494400 1.1122369443 -0.7995515893
H -2.0062606466 2.4456511701 -0.9202477446
H -0.9454293546 0.2895642496 -1.5995818936
H -2.2238228556 -1.3351775650 -0.2619308545
H -1.6693744371 -0.5519635292 1.2500146695
H 1.8344647006 -1.7235753965 0.3881064354
H 0.9901069732 -0.8187077834 1.6829935628
H 1.3580669373 0.0746054042 -1.2216221790
H 2.2652977641 1.3253362843 1.4331779471
H 3.3274009825 0.5011524240 0.2680579588
H 2.5207271361 2.0203062520 -0.1789789715
