45
CONF100
C -4.4199166393 -1.4254490193 -3.5969726258
O -4.3233003300 -0.0697051329 -3.1352977387
N -3.4925999734 -0.0305899663 -2.0459421690
C -3.3214551471 1.1418065544 -1.5142699300
C -3.8790951508 2.4140668823 -1.9028608921
C -3.7359246446 3.6858010581 -1.3913885117
C -4.5262645620 4.5422235003 -2.1965821976
C -5.1026214562 3.7518946770 -3.1453533995
O -4.7263825601 2.4615264462 -2.9891580140
C -2.3958834427 1.1134190415 -0.3142889197
O -2.1624577093 2.0985103194 0.3739863801
N -1.8242626151 -0.0948992152 -0.0479425106
C -0.9981728951 -0.2514549704 1.1091112952
C 0.5207375680 0.0771814058 0.9834233271
N 0.7999739942 -1.3431174404 1.1977871102
C -0.5390157973 -1.6990282373 1.3899807637
O -1.0825903205 -2.7300598101 1.6771771243
C 2.0043203581 -1.8910774879 1.6461801743
C 3.0089160442 -1.1032455373 2.0903452610
C 2.9033204154 0.3958324052 2.1703279448
S 1.2088720494 1.0831094914 2.3452867254
C 4.3366680199 -1.6625493142 2.5309324481
O 5.4111881026 -0.7097978909 2.3369228748
C 5.7621223309 -0.5169311371 1.0305851430
O 5.2259239612 -1.0599047593 0.0883532423
N 6.7629453966 0.4074588425 0.9493114218
C 2.1388003402 -3.3663596503 1.5539896962
O 2.8305226478 -4.0405470357 2.2863299050
O 1.4214307965 -3.8726575310 0.5284925753
H -5.0935213439 -1.3871564209 -4.4545481398
H -3.4371723542 -1.7981395921 -3.9044661598
H -4.8378433861 -2.0687516388 -2.8156991495
H -3.1341256017 3.9468451907 -0.5383852053
H -4.6521639009 5.6081326656 -2.0851656729
H -5.7751012108 3.9450572427 -3.9664439524
H -2.0681901173 -0.8891410912 -0.6217535255
H -1.4472064961 0.2264309517 1.9875920139
H 0.8468928320 0.4434033833 0.0050802964
H 3.4596501440 0.7486491752 3.0447527639
H 3.3856972837 0.8480547618 1.2937052573
H 4.3329823715 -1.8386860905 3.6112502663
H 4.5793694350 -2.5970452102 2.0266195409
H 7.2279738306 0.4782162359 0.0609642353
H 7.2859758969 0.6341875469 1.7782401825
H 1.5209831375 -4.8365452165 0.5697905596
