48
CONF4
C 6.5277506244 -2.4356406311 0.8536290520
O 5.3239923370 -2.6756229672 0.1304784320
C 4.3877205309 -1.6862238962 0.1195690104
C 3.2272112020 -1.9584242795 -0.6138203415
C 2.2172026036 -1.0199419497 -0.6853223157
C 2.3257061019 0.2174584999 -0.0281664190
C 3.5007793462 0.4817883327 0.6793204897
C 4.5242297071 -0.4560714862 0.7662216317
C 1.2286690505 1.1889920016 -0.1085448086
Cl 1.7791642737 2.8553904155 -0.3919092785
C -0.0966648947 0.9313653861 0.0090227840
C -1.1577349784 1.9090902028 -0.3130752557
C -1.1925227301 2.5886670797 -1.5315617824
C -2.2176858832 3.4770009828 -1.8421953190
C -3.2359270077 3.7029066527 -0.9139493386
O -4.2832498438 4.5552236628 -1.1049563860
C -4.3253497071 5.2811663240 -2.3292582898
C -3.2248731017 3.0213854036 0.3076264161
C -2.2058607550 2.1318497412 0.5930326836
C -0.5661367308 -0.3796645573 0.5176103649
C 0.0129994539 -0.9903846047 1.6410918721
C -0.4515711288 -2.2009832917 2.1179977371
C -1.5181726732 -2.8446155285 1.4803481450
O -1.8987000000 -4.0356393120 2.0238793863
C -2.9850974189 -4.7216628535 1.4098384398
C -2.1215430712 -2.2487821204 0.3712996319
C -1.6470705682 -1.0240252877 -0.0890252293
H 6.3259302158 -2.2693438607 1.9197680924
H 7.1305313856 -3.3368950800 0.7353466850
H 7.0733912321 -1.5754087603 0.4446414043
H 3.1453097719 -2.9102123467 -1.1271777882
H 1.3216005888 -1.2385643627 -1.2565366543
H 3.6179640044 1.4376561226 1.1785411447
H 5.4148787285 -0.2136995084 1.3324215661
H -0.4074841927 2.4139903083 -2.2596570417
H -2.2107668458 3.9758236494 -2.8033832696
H -3.4388837415 5.9181589037 -2.4456559400
H -4.4076498268 4.6064784610 -3.1915677585
H -5.2169495573 5.9071642004 -2.2738880424
H -4.0260606671 3.2061853812 1.0150037271
H -2.2099263685 1.5978016154 1.5382567318
H 0.8378428609 -0.4987597157 2.1459908560
H -0.0087324797 -2.6672000484 2.9914670935
H -3.1237055948 -5.6368436085 1.9868838740
H -3.9058730275 -4.1248450192 1.4463115038
H -2.7564065382 -4.9793525848 0.3674322443
H -2.9552510147 -2.7177086636 -0.1364634740
H -2.1270239719 -0.5590272030 -0.9448187668
