39
CONF18
N 1.3819015486 -0.1865402814 2.3155475444
C 1.7742099514 -1.3295434706 1.6904640902
N 1.8237200853 -2.4460814435 2.4319458608
C 2.2524136325 -3.5645779662 1.8218036188
N 2.2504384387 -4.7112510461 2.5727342363
N 2.6352105178 -3.6783132685 0.5367888474
C 2.5744911755 -2.5391131578 -0.1730991772
C 2.1611033217 -1.3203777755 0.3257977987
C 2.1252252732 -0.0725931411 -0.5091803177
C 0.7327615780 0.5048555330 -0.7023471722
C -0.3383007559 -0.3459577243 -0.9757249226
C -1.6141455041 0.1865175171 -1.1732306627
O -2.7245975927 -0.5528157840 -1.4425719334
C -2.5641403996 -1.9762704979 -1.5175498833
C 0.5380452284 1.8831335052 -0.6169073262
C -0.7400996138 2.4184914587 -0.8127187452
O -1.0388975520 3.7442646793 -0.7431011996
C 0.0352198679 4.6466725741 -0.4431699045
C -1.8202744611 1.5729835155 -1.0998891978
O -3.0696732941 2.1011318075 -1.3292452714
C -3.8661665890 2.1948826171 -0.1293185763
H 0.9482061767 -0.2859204407 3.2211262228
H 1.0581516813 0.5857141450 1.7525169914
H 2.8141578124 -5.4718620078 2.2260471973
H 2.2400529040 -4.5942385554 3.5740563214
H 2.8836383450 -2.6070820024 -1.2169612011
H 2.5566187001 -0.3039163808 -1.4911688211
H 2.7653493786 0.7005307825 -0.0645983996
H -0.1663437467 -1.4143925899 -1.0236556448
H -2.2067045973 -2.3823223715 -0.5640807960
H -3.5563680881 -2.3716379871 -1.7363515891
H -1.8711480888 -2.2516722330 -2.3207158916
H 1.3813627322 2.5266530093 -0.3958936383
H 0.8131515955 4.6010755759 -1.2137893717
H 0.4710506249 4.4261141280 0.5379770754
H -0.4124181572 5.6406988677 -0.4314180438
H -4.0204323081 1.2013927896 0.3074269484
H -4.8265554550 2.6209055794 -0.4260158020
H -3.3802159641 2.8504621307 0.6027315163
