41
CONF39
C 0.1035121610 -2.9438320176 -2.1299076764
C -0.3903187837 -1.7594218022 -1.3801844950
C -1.5942228878 -1.5779181927 -0.7567028744
C -1.5664169367 -0.3025353136 -0.0913886106
C -0.2967853875 0.2712729438 -0.3184559400
N 0.4339887867 -0.6449585267 -1.1078365541
C 1.7089289876 -0.4494275778 -1.6551396323
O 2.0081283603 -0.8978319301 -2.7531817617
C 2.6948416248 0.2725086918 -0.8137033946
C 3.6374545980 1.0937604434 -1.4382687875
C 4.6201800229 1.7293581592 -0.6923846149
C 4.6631424781 1.5059578160 0.6806468461
C 3.7529936372 0.6721217216 1.3227619731
C 2.7597134036 0.0636231736 0.5675016276
Cl 5.9096616201 2.2952438452 1.6308959230
C -0.0040986459 1.5547282266 0.1198570108
C -0.9716190064 2.2418294496 0.8537797969
C -2.2207844109 1.6575886823 1.1224236375
C -2.5308957798 0.3848465122 0.6415021525
O -3.2094344994 2.2744507151 1.8383013632
C -2.9501313115 3.5939126884 2.3331688846
C -2.7498703949 -2.5172848128 -0.7104006539
C -2.9799848487 -3.2013649394 0.6226195549
O -4.0584517770 -3.6116372188 0.9987193552
O -1.8482315335 -3.3451266016 1.3386897696
H -0.5784968494 -3.7817249705 -1.9746525877
H 1.0972360902 -3.2435876518 -1.7833969615
H 0.1787782914 -2.7478612489 -3.2030514594
H 3.5898507615 1.2442591555 -2.5115493745
H 5.3421233755 2.3832940785 -1.1675646704
H 3.8186311446 0.5020750839 2.3911185250
H 2.0414420014 -0.5873322391 1.0550915403
H 0.9435222672 2.0362572825 -0.0860743843
H -0.7387128756 3.2386366400 1.2054162549
H -3.5136130962 -0.0373115023 0.8283005693
H -2.1014201319 3.5959540824 3.0274433595
H -3.8553093699 3.8933484735 2.8623447173
H -2.7568586899 4.2933193255 1.5111980140
H -2.6355471878 -3.3235749602 -1.4445817909
H -3.6845200971 -2.0049685229 -0.9612931999
H -2.0684054122 -3.8206466534 2.1585790406
