47
CONF51
C 6.6683969534 0.8065266302 0.2658456308
N 5.2420704182 0.9901092548 0.0028479059
C 4.9555261541 0.8103915603 -1.4236534315
C 3.4738932619 1.0063061117 -1.7006921881
N 2.6834422082 0.0409098964 -0.9252249662
C 2.9667848159 0.2219228991 0.5052524011
C 4.4493496343 0.0307455374 0.7778967131
C 1.2678955047 0.2146209248 -1.1974389832
C 0.4411893597 -0.9604422445 -0.6845879359
O 0.9079607057 -2.0708781640 -0.4713980378
N -0.8953931713 -0.6913864584 -0.4551019696
C -1.7680557160 -1.6996887618 0.0526933559
C -2.0474935883 -2.8291584605 -0.7123256992
C -2.9024379967 -3.8033717900 -0.2135617772
C -3.4828303142 -3.6487706253 1.0459299707
C -3.1978870382 -2.5256175697 1.8074898988
C -2.3404898021 -1.5319571342 1.3179476434
C -2.0524395274 -0.3787313077 2.2150065028
O -2.0284318115 -0.5213627919 3.4372906083
N -1.8676646521 0.8744416130 1.6764327209
C -1.9978026285 1.3115922294 0.3536386999
C -1.5139752015 0.5633522953 -0.7269935838
N -1.6130184572 0.9478693213 -1.9943252341
C -2.1515776271 2.1464592414 -2.2478795014
C -2.6225450320 2.9860830762 -1.2427138079
C -2.5519649253 2.5620658663 0.0754492823
H 6.8708983918 0.9612559544 1.3310478506
H 7.0221023696 -0.2056097029 -0.0092401537
H 7.2473843535 1.5384416110 -0.3074652247
H 5.2588730535 -0.1989628484 -1.7687662740
H 5.5313572464 1.5465430463 -1.9969582163
H 3.1896140011 2.0486698912 -1.4550566486
H 3.2789251355 0.8469787602 -2.7674965167
H 2.3955580116 -0.5152841664 1.0796720062
H 4.7343495487 -1.0128959606 0.5339337480
H 4.6445417658 0.1887901857 1.8451330135
H 1.1092986190 0.2664912507 -2.2828813588
H 0.8719889177 1.1599744126 -0.7794347847
H -1.5866997150 -2.9358907429 -1.6880250304
H -3.1191424225 -4.6837687981 -0.8097627867
H -4.1561627682 -4.4066389388 1.4320912368
H -3.6354339747 -2.3974288178 2.7913633096
H -2.2039999560 2.4442681098 -3.2920812158
H -3.0483640456 3.9519953806 -1.4902594145
H -2.9146655692 3.1856146233 0.8869048656
H 2.6578076934 1.2316936770 0.8415139381
H -1.8248599316 1.6023331023 2.3811611122
