47
CONF171
C -3.6449478889 1.2773375452 2.4960142015
C -2.4188323362 1.7549691835 1.7523190040
C -2.3861629787 3.1507120229 1.2195243372
C -2.6350706057 1.9976695406 0.2465640981
C -1.5854962657 1.6670816944 -0.7220031979
O -0.4248723407 2.0194747896 -0.7018227964
O -2.0919447836 0.8501366254 -1.7009989045
C -1.1038826350 0.3658205707 -2.6459304126
C -1.8649808405 -0.0547309505 -3.8220948878
N -2.4350903962 -0.4023959191 -4.7640989511
C -0.3023102906 -0.7829900755 -2.0698487964
C -0.9613468423 -1.9010704290 -1.5571583432
C -0.2147818606 -2.9343371345 -1.0013502138
C 1.1750479166 -2.8667080562 -0.9583120519
C 1.8150374272 -1.7416917962 -1.4744851606
C 1.0849769496 -0.6956196443 -2.0321085424
O 3.1876332844 -1.6234783402 -1.5221484282
C 3.9457438304 -2.1697554307 -0.4945317460
C 5.0894261887 -2.8727905187 -0.8546872709
C 5.9233770114 -3.3664752862 0.1459849415
C 5.6103240662 -3.1640881983 1.4882607064
C 4.4593319096 -2.4548391280 1.8301195024
C 3.6209841148 -1.9481448596 0.8416681400
C -3.4650588568 4.1249389389 1.4779829979
C -3.6748781464 5.1945669486 0.7132385479
Cl -4.9153409236 6.3721741936 1.0435065905
Cl -2.7313584158 5.5311059483 -0.7105582520
C -1.1265760816 1.1376216608 2.2342590017
H -4.5679928260 1.6907562015 2.0815068794
H -3.5775184220 1.5672949220 3.5507059112
H -3.7075079186 0.1856515834 2.4470320239
H -1.3914410005 3.5788602906 1.1050530605
H -3.6512667760 1.8444174382 -0.0997997800
H -0.4381313330 1.1847668811 -2.9413058664
H -2.0446793585 -1.9604199377 -1.5877722777
H -0.7166159214 -3.8105992023 -0.6040868379
H 1.7542516527 -3.6782598827 -0.5316340432
H 1.6041141505 0.1762308654 -2.4164929831
H 5.3157297920 -3.0240413049 -1.9049997457
H 6.8180838034 -3.9162016311 -0.1289139599
H 6.2603459934 -3.5537932646 2.2646606506
H 4.2140627947 -2.2847644584 2.8738323421
H 2.7288883698 -1.3869638660 1.1007745110
H -4.1128789105 3.9910323741 2.3395755401
H -1.1522763513 0.0501137041 2.1038025771
H -1.0059962736 1.3478795704 3.3022864061
H -0.2581210665 1.5335461180 1.7055172948
