33
CONF48
C 5.0314453789 0.8137160774 -0.8822701765
C 4.9995508449 1.7296502572 -2.1121667280
O 6.2525943509 1.6648361931 -2.7980017531
C 3.8811674929 0.9609347711 0.0922649038
C 2.5584253952 0.2541215999 -0.3352854960
C 1.2944513699 0.6220372984 0.5184385254
C 0.1227661921 -0.4136267350 0.3646722535
C -1.2682358968 0.1532132907 0.8227726984
C -2.3316153962 -0.9715520986 1.0886461231
C -3.8048641634 -0.4376221167 1.0907686643
C -4.8316312825 -1.4111351383 1.7589475387
F -4.6664210614 -1.4475978833 3.0848518997
F -6.0710031385 -0.9769753473 1.4944354149
F -4.6899031866 -2.6482102273 1.2624614620
F -4.1999409660 -0.2388230732 -0.1844383471
F -3.8573019297 0.7365808600 1.7610480682
F -2.2241824820 -1.9160490683 0.1267077719
F -2.0740446823 -1.5362041143 2.2898169590
F -1.7395894483 0.9748371103 -0.1419479317
F -1.1003703318 0.8596147663 1.9631293552
F 0.0262434809 -0.7793947534 -0.9334397265
F 0.4115562487 -1.5041037744 1.1117645647
F 0.8485196499 1.8377064446 0.1207597538
F 1.6326372154 0.6863130761 1.8248392644
F 2.2902771988 0.5772805120 -1.6256760103
F 2.7598127716 -1.0874102858 -0.2645982693
F 4.2436473618 0.4216110361 1.3000964583
F 3.5878160861 2.2827855297 0.3170139592
H 5.0945447404 -0.2382870460 -1.1827854459
H 5.9316539489 1.0478063808 -0.3032521292
H 4.8790616301 2.7699457291 -1.7998459371
H 4.1769989766 1.4722143367 -2.7872305141
H 6.3175221714 0.7977654140 -3.2175317884
