22
CONF48
C 2.3697292067 -0.0683355968 0.5484950203
C 0.9625506907 0.2572169862 0.0739452745
C -0.0586805207 -0.7588709971 0.6053855833
C -1.5349230706 -0.3056439307 0.5478116322
C -2.1056291887 -0.0084861476 -0.8304276894
O -1.5500579253 1.1700837651 -1.4429166903
O -1.7411953531 0.8791398452 1.3266376970
O 0.0843319467 -2.0110704353 -0.0664705568
O 1.0053215794 0.2258294966 -1.3616766507
O 3.3220690500 0.8747239113 0.0487740926
H 2.6350292898 -1.0907900720 0.2394882991
H 2.4106606072 -0.0124831628 1.6404246640
H 0.6876381509 1.2615070902 0.4265082637
H 0.1656046281 -0.9401594158 1.6669746144
H -2.1269034888 -1.1437019993 0.9497788685
H -1.8999009220 -0.8422311915 -1.5075430607
H -3.1936898226 0.1053193759 -0.7394603376
H -1.6595704009 1.8976260693 -0.8140137593
H -1.4755515061 0.7006663088 2.2378784471
H 0.3163212347 -1.7912390333 -0.9830516603
H 0.1964735083 0.6906261962 -1.6579971828
H 3.1903730946 0.9102731280 -0.9085448531
