39
CONF160
C 3.3251852131 1.6778455570 -1.7084010532
C 4.0645882300 0.5378701229 -1.0097078418
C 3.2633205730 -0.7618235228 -0.8983996693
C 2.0088741975 -0.6730406435 -0.0530783699
C 1.3846244729 -2.0085762594 0.3032477177
O 0.0098706808 -1.6638890365 0.5559152084
C -0.2855175991 -0.4932639623 -0.2059349360
C -1.2413277657 -0.8849446421 -1.3533870658
N -2.5334029927 -1.3028229874 -0.8424026099
C -2.8927368777 -2.5060112790 -0.3516675869
N -4.1360996018 -2.4599247028 0.1128415256
C -4.4942609604 -1.1650219571 -0.1192494143
N -3.5561571435 -0.4224278882 -0.6932400016
O 0.9232784832 -0.0683481897 -0.8078833664
C -0.8735747426 0.5625368180 0.7317013745
C -1.1071068591 1.8878679556 0.3487586590
Cl -0.7352245274 2.4714604834 -1.2691569314
C -1.6561602981 2.8251768548 1.2174279543
C -1.9944440546 2.4183427057 2.5002981674
Cl -2.6914264805 3.5930164869 3.6028843624
C -1.7950920259 1.1130711329 2.9246481330
C -1.2361046572 0.2062461169 2.0332405738
H 2.4493325228 1.9957207656 -1.1359282087
H 3.9810463212 2.5452526824 -1.8339351324
H 2.9778642425 1.3688001133 -2.7007341221
H 4.3645421703 0.8557534378 -0.0028234432
H 4.9910870930 0.3185207515 -1.5536151040
H 3.8987311063 -1.5319209994 -0.4418424748
H 2.9823516473 -1.1305223265 -1.8933866971
H 2.1848343763 -0.0790052554 0.8574775402
H 1.7945384701 -2.4593965679 1.2097651316
H 1.4563581750 -2.7122343815 -0.5383310707
H -1.3934078538 -0.0499730891 -2.0379001056
H -0.7834591379 -1.7196432205 -1.8908202844
H -2.2332085382 -3.3633992991 -0.3646348882
H -5.4661267824 -0.7591225347 0.1321934599
H -1.8173321924 3.8463664073 0.8945421218
H -2.0662999408 0.8062901281 3.9278524123
H -1.0719567477 -0.8148250027 2.3536659143
