47
CONF123
C -6.6126197262 -2.7635838304 0.7678562202
O -6.4733622317 -1.4726316301 0.1331276952
P -5.0093716099 -0.8519277537 -0.0858606135
S -3.6276305141 -2.0285362819 -0.7419820302
O -5.3675983388 0.4479011936 -0.9572892017
C -5.5942796172 0.2987111312 -2.3782359058
O -4.7643066565 -0.1689242861 1.3670611932
C -3.5075753522 0.2462265635 1.7983372537
C -3.0688016900 -0.2232289620 3.0265152092
C -1.8320465112 0.1899993358 3.5101508745
C -1.0516971685 1.0785522573 2.7703943768
C -1.5187990775 1.5568515254 1.5431324000
C -2.7440533646 1.1353767943 1.0484375155
S 0.5019814816 1.6384585934 3.4515540089
C 1.6396720079 1.3174536733 2.1108014987
C 1.5190000090 0.2028394622 1.2781580417
C 2.4568453233 -0.0313309966 0.2815157739
C 3.5341271377 0.8379431998 0.1399599652
C 3.6759002128 1.9401189471 0.9712911152
C 2.7191184242 2.1883382351 1.9474957846
O 4.4779174399 0.6811403881 -0.8694287914
P 5.1886738392 -0.7596829218 -1.2077135233
S 5.7156658298 -1.8262036293 0.2968525681
O 6.3097320507 -0.2284325205 -2.2301810231
C 7.4787252807 0.4393303156 -1.7066494320
O 4.1803882833 -1.4949082976 -2.2119609849
C 3.6560762493 -0.7919611859 -3.3662385806
H -6.0233645733 -3.5149313616 0.2341391764
H -7.6745813887 -3.0059160975 0.7184823221
H -6.2915656288 -2.7075291969 1.8128793015
H -5.7345280070 1.3089319338 -2.7638316810
H -4.7293329379 -0.1745826731 -2.8524262974
H -6.4945368534 -0.2972485910 -2.5563021701
H -3.6845129375 -0.9208649421 3.5828421821
H -1.4642172771 -0.1912561327 4.4566034882
H -0.9168207836 2.2566441992 0.9734466591
H -3.1152661437 1.5008041487 0.0975221276
H 0.6885937070 -0.4835511957 1.4028950433
H 2.3613022982 -0.8970318935 -0.3649988061
H 4.5234393168 2.6029164928 0.8372248084
H 2.8119773014 3.0617570713 2.5846081591
H 7.9817385960 -0.1992494345 -0.9743704055
H 8.1299800970 0.6184052551 -2.5627262868
H 7.1964158472 1.3911961183 -1.2455572958
H 3.1799472725 0.1451594775 -3.0613931661
H 4.4574799638 -0.5910187468 -4.0817871599
H 2.9161693408 -1.4605235289 -3.8073054213
