48
CONF27
C -4.0313553099 -1.6767608617 -2.1324764252
C -3.8975528852 -0.6738143494 -0.9959128736
C -2.4280450682 -0.3283443180 -0.7603657584
N -2.3020892623 0.6577392450 0.3180431441
C -3.0914424505 1.8767024568 0.0327994945
C -4.5448068557 1.5077829629 -0.2038108254
N -4.6269794327 0.5595244164 -1.3201114231
C -1.0556813962 0.8210259136 0.8944495715
C -0.9102085200 1.5102426504 2.1290518834
C 0.2906576653 1.6804720478 2.7538554224
C 1.4587341817 1.1315946504 2.1961871388
C 1.3401299019 0.4027329580 0.9957335823
C 0.1086218055 0.2698244298 0.3516195170
N 2.4945143387 -0.1588640363 0.4374697435
C 3.6985350468 0.0074195519 1.0216256319
C 3.8732604859 0.7116628492 2.1854849140
C 2.7408468640 1.3108134919 2.8466997123
O 2.8556954216 1.9594585365 3.9232779010
C 5.2471561273 0.8249661500 2.7357260620
O 6.2278891265 0.3326355611 2.2009563279
O 5.3425262659 1.5133541023 3.8753370420
C 2.4191594404 -0.9253774203 -0.7715780571
C 1.8912491878 -2.2138597070 -0.7443224804
C 1.8066900629 -2.9947039317 -1.8821744578
C 2.2828308895 -2.4390761125 -3.0600087321
C 2.8213393567 -1.1645444466 -3.1383157675
C 2.8804644825 -0.4053672513 -1.9759127375
F 2.2175994118 -3.1847302551 -4.1812879677
F 1.4464292973 -2.7082101554 0.4235932885
F -2.0238077944 1.9754547760 2.7426158052
H -3.5032018424 -2.6046374625 -1.8926229072
H -5.0846076171 -1.9203891084 -2.3047061243
H -3.6168398198 -1.2652533192 -3.0587261316
H -4.2803887344 -1.1291217688 -0.0617591645
H -1.8965602980 -1.2402860372 -0.4692058561
H -1.9896666854 0.0488335899 -1.7020184834
H -2.6824881821 2.3628155060 -0.8688323725
H -3.0161227906 2.5763284500 0.8644413382
H -4.9650859959 1.0976824231 0.7329921296
H -5.1019622687 2.4159930090 -0.4580622104
H -5.6012433304 0.3258397231 -1.4871400628
H 0.3442568693 2.2091168855 3.6988276530
H 0.0608688985 -0.2424280873 -0.5994272198
H 4.5401652526 -0.4590636122 0.5208845553
H 4.4007811594 1.8190234016 4.1152536382
H 1.3953696845 -3.9966061328 -1.8481797520
H 3.1788203505 -0.7785061464 -4.0854462805
H 3.2855436846 0.6009045862 -1.9945222404
