29
CONF2
C -2.4061731570 -1.1552041773 -0.6756444974
C -2.1224077966 -0.2995708036 0.5422602210
O -2.5079361565 1.0792990294 0.2573070764
C -1.3541008763 1.7146994919 -0.1185494035
C -1.2093472117 2.9753104019 -0.6572311963
C 0.1003576894 3.3994268596 -0.9228483630
C 1.1963895631 2.5836074454 -0.6645643122
C 1.0173981298 1.3132033904 -0.1124487517
C -0.2670552699 0.8978382620 0.1678666513
O -0.6791240952 -0.2601317693 0.7575428540
O 2.1185752896 0.5296615635 0.1960978321
C 2.1872241878 -0.7018448202 -0.4491317870
O 1.4400718508 -1.0533408643 -1.3316770457
N 3.2388284914 -1.3949459822 0.0517875010
C 3.5101784251 -2.7598657194 -0.3604308000
C -2.7965795772 -0.7465387434 1.8134921273
H -3.4764168069 -1.1447304343 -0.8973926645
H -2.0826212995 -2.1821782426 -0.4894689434
H -1.8517084477 -0.7652286611 -1.5332466203
H -2.0682535457 3.6018194022 -0.8647243573
H 0.2611285305 4.3815392075 -1.3532109280
H 2.2046552718 2.9104246353 -0.8919590060
H 3.6969189087 -1.0172800315 0.8644673524
H 3.0893609828 -2.9083071998 -1.3564084221
H 4.5901056291 -2.9289002409 -0.4023998821
H 3.0596303096 -3.4943196273 0.3196769189
H -2.5326396813 -0.0722907478 2.6306030768
H -2.4759222459 -1.7609313094 2.0623519659
H -3.8805377905 -0.7412206108 1.6761830104
