47
CONF12
C -0.8420773752 0.8632582343 2.5396028774
C -1.3115804141 1.3106838153 1.1586281778
C -2.8045526937 1.6402117424 1.1302181417
C -3.2791671799 2.1578719418 -0.2096045420
O -3.1121116424 1.0816574707 -1.1780042034
C -3.1073653859 1.4424492330 -2.4655431095
O -3.2980726597 2.5621818358 -2.8837444531
C -2.8732775978 0.2528800092 -3.3990602068
C -4.2129962636 -0.2679553309 -3.8987328173
O -2.2122441325 -0.8427183484 -2.7746118443
C -0.9383951382 -0.6520552859 -2.3155324797
C -0.3809009195 -1.7407771330 -1.6375464810
C 0.9031020250 -1.6652648077 -1.1269972514
C 1.6285810331 -0.4889428245 -1.2836829389
C 1.0916063057 0.5935957063 -1.9550944028
C -0.1974845434 0.5179129350 -2.4815691596
O 2.9638046833 -0.3946555545 -0.8756373280
C 3.2944923604 -0.5995953102 0.4243734291
C 4.6700704259 -0.6267256382 0.7045704499
C 5.0515749146 -0.8242543796 2.0124450963
C 4.0645033692 -0.9869933896 2.9924162992
C 2.7341667030 -0.9376756245 2.6046843413
N 2.3492254178 -0.7432920097 1.3380592566
C 4.4631592277 -1.2318937852 4.4115472398
F 5.3539740313 -0.3059209412 4.8493272050
F 5.0660095173 -2.4409448248 4.5627161147
F 3.4075768352 -1.2061978112 5.2535221213
H -1.0237739425 1.6376668756 3.2932193831
H -1.3699532208 -0.0427885022 2.8569872995
H 0.2277442125 0.6410085554 2.5264990839
H -0.7427758574 2.1949612718 0.8411758831
H -1.0938403364 0.5269481627 0.4247039025
H -3.3915964406 0.7560566621 1.4095067250
H -3.0282550439 2.4145878140 1.8765625337
H -2.6935982213 3.0198697036 -0.5460748508
H -4.3369207652 2.4426993576 -0.1986279150
H -2.2798835906 0.6312950155 -4.2429627728
H -4.8040174071 -0.6465715206 -3.0605267361
H -4.0489197170 -1.0798806688 -4.6109355686
H -4.7607020653 0.5382347627 -4.3918810061
H -0.9744373286 -2.6407971783 -1.5223663076
H 1.3375905357 -2.5085444019 -0.6034813624
H 1.6811407213 1.4962950528 -2.0710243958
H -0.5995741123 1.3790969170 -3.0019686101
H 5.3884536433 -0.4955996065 -0.0955017673
H 6.1021831799 -0.8539340954 2.2827444464
H 1.9395138420 -1.0546442068 3.3372018153
