47
CONF269
C -5.9671794601 2.3056648415 -3.0337032645
C -5.4818708785 2.4218326162 -1.5898985048
C -4.1438456884 1.7190522565 -1.3606109541
C -3.6695043072 1.8103711914 0.0903089181
C -2.3217855712 1.1222205009 0.3665579730
C -2.1301740492 0.8089345591 1.8587810368
C -2.9804190642 -0.3596016546 2.3545634264
C -1.1956906082 2.0070550242 -0.1441063309
O 0.0332123146 1.2337998600 -0.1047953086
C 1.1600229984 1.8820164076 -0.4725284004
O 1.1672861478 3.0517101021 -0.8348526213
C 2.3639239070 1.0566829911 -0.3982106577
C 2.3763033452 -0.2275012026 0.0172837923
C 3.5262904858 -1.1028926981 0.1196867592
C 3.3404203285 -2.4088490630 0.5985579352
C 4.3950392528 -3.3035097024 0.7288406584
C 5.6833311581 -2.8937470357 0.3714235616
C 5.8930875538 -1.5915072018 -0.1141201327
C 4.8351668162 -0.7162856596 -0.2364029567
O 6.7891503045 -3.6717951403 0.4550804023
C 6.6306624659 -5.0097175879 0.9532039470
H -5.2420798184 2.7483754757 -3.7256697467
H -6.0996272547 1.2555687614 -3.3170986740
H -6.9245378754 2.8163847107 -3.1775815684
H -5.3841065658 3.4808408028 -1.3166417809
H -6.2331443774 1.9954245664 -0.9117489283
H -3.3950618534 2.1513228737 -2.0374560429
H -4.2385562565 0.6602071478 -1.6393619882
H -4.4362053105 1.3621301574 0.7330694335
H -3.5979091091 2.8657979916 0.3925420417
H -2.2903739485 0.1767011459 -0.1955570385
H -1.0737017494 0.5798540127 2.0417200826
H -2.3585155199 1.7153006384 2.4372544242
H -2.7305875914 -1.2763974580 1.8090830886
H -4.0509018564 -0.1733837342 2.2223939221
H -2.8070713195 -0.5446967255 3.4192074905
H -1.3640109734 2.3366592578 -1.1740249228
H -1.0789981508 2.8943152379 0.4903471724
H 3.2661761495 1.5744467939 -0.7066231969
H 1.4298568660 -0.6735836289 0.3157920024
H 2.3407053010 -2.7303135124 0.8775233668
H 4.2046841676 -4.3011672441 1.1039584353
H 6.8996190207 -1.2928967342 -0.3884152010
H 5.0260523640 0.2823154893 -0.6151660029
H 6.2405405634 -5.0001510079 1.9769743241
H 7.6291228820 -5.4463668440 0.9428109670
H 5.9652030823 -5.5906216635 0.3049873266
