47
CONF48
C 3.0624992470 -3.5397824122 -1.8439061919
C 3.4570095998 -2.1384145651 -1.6062872773
C 2.8209100568 -1.0499391087 -1.0668340467
C 3.7891907843 -0.0028518759 -1.1506906215
N 4.9149239139 -0.4239789607 -1.6803381371
O 4.6958986412 -1.7766128593 -1.9887309318
C 3.6743938818 1.3826417114 -0.6681508188
C 3.4423890249 1.6186763109 0.6889718217
C 3.3039331169 2.8787826764 1.2348893480
C 3.3981692619 3.9730024259 0.3806556915
C 3.6192198917 3.8005571841 -0.9816629388
C 3.7511880269 2.5140610109 -1.4908924438
Cl 3.9691364271 2.3185135823 -3.2171632929
F 3.3551093379 0.5430618169 1.5019625405
C 1.4625016663 -1.0426959385 -0.4956922964
O 0.9728477292 -2.0395560410 0.0410434798
N 0.7862661179 0.1351845252 -0.5809149828
C -0.4885344777 0.3147122257 0.0375861501
C -1.7425203017 -0.5261298267 -0.3917919599
N -1.8621690948 -0.9698462305 1.0022372960
C -0.7440005496 -0.2759157840 1.4443644253
O -0.2414596743 -0.1635589032 2.5383115801
C -3.1801810378 -1.0403342278 1.5887670277
C -3.9980881509 0.1507136166 0.9625527643
S -3.3372899631 0.3023233274 -0.7908070148
C -3.6962950866 1.4252400836 1.7508875755
C -5.5004615553 -0.1008962159 0.9021487809
C -3.8492983686 -2.3910669820 1.3839562998
O -4.6299304933 -2.8702445525 2.1772023183
O -3.5014731271 -2.9699443478 0.2249510454
H 3.5150582603 -4.1898841235 -1.0867214119
H 1.9789496818 -3.6343485515 -1.7757943842
H 3.4084785937 -3.8691678066 -2.8271856480
H 3.1300467465 2.9918287655 2.2986947765
H 3.2942011957 4.9758524376 0.7802980447
H 3.6808817771 4.6543107807 -1.6456301079
H 1.1701359829 0.9006944493 -1.1152428326
H -0.7328025106 1.3808669032 0.0491971688
H -1.5398344166 -1.3206034933 -1.1132800982
H -3.1072388729 -0.8872057954 2.6698373297
H -2.6214491720 1.6093733848 1.8331976792
H -4.1128447493 1.3393973724 2.7610887293
H -4.1520148912 2.2865658797 1.2562143240
H -6.0034406378 0.7630642775 0.4591973139
H -5.7468764644 -0.9854315140 0.3090720539
H -5.8878955496 -0.2352269705 1.9173454995
H -3.9772403208 -3.8157881428 0.1458855587
