41
CONF162
C 5.4024864244 -0.0547716008 0.6649378699
C 5.7932120025 1.0538652338 1.6199932879
O 4.6889916722 1.3978367954 2.5011874301
C 3.7658585217 2.2592938307 1.9918835766
O 3.8532147005 2.7947627791 0.8961356691
N 2.7731762685 2.4635586939 2.8960089903
C 1.5438501645 3.1546742141 2.5468825940
C 0.4070472425 2.2019252235 2.2223515421
O 0.7931824721 1.4516528639 1.0637020117
C -0.0452117640 0.4681671007 0.6266187309
C 0.4180713412 -0.2820280109 -0.4601993570
C -0.3618185232 -1.3016210841 -0.9865937287
C -1.6016483694 -1.5778293516 -0.4201135554
C -2.0688629694 -0.8437090972 0.6598353136
C -1.2944442544 0.1877609010 1.1884455563
O -2.3421142331 -2.6511604302 -0.9114734900
C -3.4584467536 -2.3791136113 -1.6739318883
C -3.7632245339 -1.1102841922 -2.1652888198
C -4.9046283522 -0.9446281866 -2.9483891629
C -5.7330535910 -2.0238171365 -3.2427683026
C -5.4111478242 -3.2871696061 -2.7459126851
C -4.2789283671 -3.4710136725 -1.9615056999
H 5.0682479701 -0.9392870295 1.2150346282
H 6.2691949700 -0.3337657847 0.0571505563
H 4.6024312410 0.2709088231 -0.0052887547
H 6.1190205379 1.9515016176 1.0878870467
H 6.5851199562 0.7321106175 2.3003548524
H 2.7734230858 1.8796206778 3.7196493626
H 1.7499028869 3.8001784319 1.6895387849
H 1.2288624432 3.7885113750 3.3835746209
H 0.2213780432 1.5200005033 3.0641505352
H -0.5082021875 2.7757192290 2.0211031698
H 1.3911726904 -0.0517553950 -0.8816199497
H -0.0134289763 -1.8873456506 -1.8310135616
H -3.0396559471 -1.0734571827 1.0877579055
H -1.6750086281 0.7534390962 2.0297473684
H -3.1215015825 -0.2652782057 -1.9434295020
H -5.1410364779 0.0432983763 -3.3318796259
H -6.6194006716 -1.8842431773 -3.8524957187
H -6.0476905042 -4.1384299915 -2.9671488702
H -4.0183891135 -4.4480778860 -1.5677202271
