61
CONF56
C -0.5352791219 -1.4701342655 -2.6262146451
O -1.3808686923 -0.5697207293 -1.8968854737
C -2.4727329995 -1.0822292873 -1.2579744047
C -2.6789519292 -2.4567428102 -1.1247517455
C -3.8170714489 -2.9439493336 -0.4970683174
C -4.7573012546 -2.0487682390 -0.0050231964
Cl -6.2043182688 -2.6573523647 0.7799320243
C -4.5617572270 -0.6841768398 -0.1176171324
C -3.4157388241 -0.1733874141 -0.7324032043
C -3.3031856369 1.3280860124 -0.6983369581
O -4.2573728602 2.0232075050 -0.3519271735
N -2.0938505573 1.8765612353 -0.9857992176
C -1.8092791560 3.2638154932 -0.6571465721
C -1.9257251337 3.5789616041 0.8581114456
C -1.2809293197 2.5090817244 1.6911167301
C 0.1027806483 2.4762721226 1.8805657627
C 0.7103713741 1.4163239897 2.5430810014
C -0.0859395300 0.3796444847 3.0174415699
C -1.4707464179 0.4004633779 2.8754912388
C -2.0581171161 1.4695667494 2.2156677561
S 0.6799130470 -1.0509960309 3.7724301481
O -0.1741267719 -1.5537766220 4.8465502685
O 2.1040623613 -0.7503504723 3.9717716443
N 0.5982639810 -2.2707276233 2.5627071265
C 1.0898405180 -2.1027346106 1.2372387385
O 0.4634277816 -2.5813954575 0.2988011863
N 2.2689319965 -1.4525790562 1.1341226356
C 2.8279173367 -1.0801971076 -0.1625379450
C 4.3409495037 -0.9074836867 -0.0362794733
C 4.9572470712 -0.4959881802 -1.3761504613
C 4.2986175692 0.7684386524 -1.9319332462
C 2.7845530672 0.5847767213 -2.0563955625
C 2.1737024461 0.1943711195 -0.7094911331
H 0.0015129100 -2.1368084500 -1.9439868451
H -1.1250483504 -2.0432325326 -3.3512136339
H 0.1715792829 -0.8318538169 -3.1585075744
H -1.9390267635 -3.1594679702 -1.4834700669
H -3.9660361424 -4.0121733519 -0.3903091768
H -5.2854633378 0.0251685160 0.2660789045
H -1.3290135060 1.2539382989 -1.1954089172
H -2.4931368388 3.9236724037 -1.2023389011
H -0.7904210945 3.4686590213 -1.0014398883
H -1.4514476716 4.5505905011 1.0359239967
H -2.9834154408 3.6630373224 1.1153194950
H 0.7157001549 3.2893117901 1.5004078747
H 1.7823429475 1.3900112725 2.7003746286
H -2.0774998891 -0.4037351138 3.2784721661
H -3.1358401923 1.4965981815 2.0871826745
H -0.3155052808 -2.7144946121 2.5505647595
H 2.7258983485 -1.1380319780 1.9806242536
H 2.6169622469 -1.9057330769 -0.8554815083
H 4.7907719610 -1.8384537577 0.3269852382
H 4.5503852092 -0.1304958925 0.7144601421
H 6.0355798792 -0.3457269267 -1.2566362845
H 4.8317659160 -1.3158162994 -2.0968340008
H 4.7342989948 1.0256979667 -2.9037159693
H 4.5042673959 1.6107642232 -1.2568494897
H 2.3143488261 1.5003042632 -2.4333137300
H 2.5778364375 -0.2033468431 -2.7945479213
H 2.3301342381 1.0060900081 0.0142804045
H 1.0911850487 0.0386463030 -0.7875772539
