53
CONF10
C -4.5937563562 -2.2420353084 0.0307850934
C -3.8641294681 -1.1716580728 0.8532822804
C -4.2469664243 -1.3567090938 2.3322084225
C -4.3474452920 0.2237719750 0.4225450403
O -4.1605879170 0.3758530718 -0.9794307650
C -4.2364358780 1.7300804390 -1.4031011079
C -3.0057990460 2.5369435864 -1.0524567089
C -1.7514426684 1.9298531572 -1.0884136797
C -0.6144417429 2.6825824667 -0.8265446594
C -0.7011013402 4.0427563901 -0.5325442252
C -1.9565503919 4.6365603028 -0.4842964968
C -3.1060086587 3.8910707774 -0.7356025835
O 0.5984209342 2.0370576158 -0.9661508158
C 1.6187377801 2.2766941873 -0.0705237633
C 2.9122699191 2.0974833548 -0.5524669577
C 3.9884992365 2.2252677559 0.3164613214
C 3.7812014362 2.5408917660 1.6567484915
C 2.4827039223 2.7229401956 2.1239474000
C 1.3933097499 2.5893761114 1.2686236741
C -2.3478613004 -1.2206175280 0.6630487904
C -1.7580144455 -1.7973352707 -0.4616887799
C -0.3818494749 -1.7599782585 -0.6822406858
C 0.4230348715 -1.1428486379 0.2628987482
C -0.1236455740 -0.5687227602 1.4018748468
C -1.4966741771 -0.6021331755 1.5867963571
O 1.8127607806 -1.0073116834 0.1794721013
C 2.5514954723 -1.6252765836 -0.7524226160
F 3.8194896655 -1.2448581730 -0.5718410850
F 2.1967965127 -1.2995459081 -2.0168948712
Br 2.5039249676 -3.6315466467 -0.6196870295
H -4.4656577032 -2.0933170943 -1.0424002745
H -5.6670666370 -2.1944578928 0.2402923925
H -4.2370457141 -3.2420808620 0.2972487875
H -3.8161488249 -2.2822171235 2.7251530090
H -5.3352236177 -1.4162897347 2.4306151053
H -3.9074867037 -0.5287522515 2.9609821427
H -5.4175902493 0.3413793542 0.6696798851
H -3.7784051931 0.9901393457 0.9726569526
H -5.1358226388 2.2193554145 -0.9949317105
H -4.3485138724 1.6883645953 -2.4933803839
H -1.6534498282 0.8728545617 -1.3121792061
H 0.1986614021 4.6182317040 -0.3451412041
H -2.0369468235 5.6935129401 -0.2506019396
H -4.0820306239 4.3658417628 -0.6906731722
H 3.0533123815 1.8428201059 -1.5973269865
H 4.9957558320 2.0756917595 -0.0586233015
H 4.6238947848 2.6420696005 2.3318028234
H 2.3098416237 2.9639848893 3.1682712307
H 0.3803024687 2.7177307547 1.6334621635
H -2.3737659849 -2.2773930362 -1.2117425535
H 0.0272289511 -2.2039941072 -1.5790826492
H 0.5344388419 -0.0923020785 2.1194270805
H -1.9022691110 -0.1293738008 2.4741310256
