67
CONF9
C 6.6719051639 -1.8785190999 2.3028723853
C 5.4927462862 -1.7600198610 1.3891963862
O 5.5392163958 -1.6131739496 0.1867181933
O 4.3275540407 -1.8280958996 2.0846098782
C 3.1367032623 -1.5873470076 1.3309477666
C 2.9409397019 -0.1012820502 1.0832666415
O 3.7904577535 0.7101517849 1.3888738939
C 1.6040520990 0.3115655923 0.4637674797
C 1.7231010394 1.5766650071 -0.4463938172
C 0.7427617921 2.6059145007 0.1039192164
C -0.3172550459 1.7931685674 0.8712583766
C 0.5178438402 0.6734532637 1.5470899805
C -0.3600195682 -0.4943627449 2.0102554330
C -1.4556671475 -0.9554323631 1.0568808182
C -2.3221435896 0.2058353928 0.5573875695
C -1.4655317480 1.3211394966 -0.0481904898
C -2.3145818720 2.5536137115 -0.4229942657
C -3.6940234538 2.2284546475 -0.9970057178
C -3.6970772975 0.8167585157 -1.4821054551
C -3.7513374818 0.5829967790 -2.8054082110
C -3.5059108245 -0.7378552020 -3.3829355147
O -3.5630028106 -0.9342872629 -4.6033704264
C -3.1738855985 -1.7992329922 -2.4375273718
C -3.1260139936 -1.5760539260 -1.1167808408
C -3.4585090172 -0.2655465767 -0.4590948911
C -4.7955545598 -0.5604932150 0.2959024255
F -4.6798952710 2.4100894059 0.0126743502
F -2.9510913836 0.7477481530 1.7151091705
O -2.2458972545 -1.9608299677 1.7018858988
C 1.2001565735 1.2563360910 2.8001181891
O 1.2840435226 1.1116046639 -1.7340018840
C 1.4767658318 -0.3017360454 -1.7627462538
O 1.1401860208 -0.7164801310 -0.4164012510
C 0.4858951442 -0.9220700681 -2.7195157660
C 2.9191686193 -0.6522091024 -2.1072282431
H 7.5465605376 -2.1934602672 1.7343017598
H 6.4707814629 -2.5688245476 3.1239528817
H 6.8678264040 -0.8903803361 2.7340450326
H 3.1495503508 -2.1237861533 0.3777457793
H 2.3082497629 -1.9772653428 1.9297026565
H 2.7509100848 1.9495454018 -0.5046084824
H 0.3402425404 3.2218991355 -0.7031970936
H 1.2722467278 3.2742608661 0.7882551306
H -0.7718004057 2.3993189180 1.6636556658
H -0.8490708711 -0.1732364650 2.9392678155
H 0.2477038436 -1.3668924526 2.2716726476
H -1.0096024348 -1.4329072168 0.1817122012
H -1.0403041250 0.8967885792 -0.9651656738
H -2.4644662709 3.1915802022 0.4547876879
H -1.7729717672 3.1464080370 -1.1639648253
H -3.9676236950 2.9185475566 -1.7993899493
H -3.9341313407 1.3952387266 -3.5047312979
H -2.9875068336 -2.7880089289 -2.8470915610
H -2.9428764018 -2.4044173939 -0.4403279575
H -4.6544568022 -1.4057068933 0.9717809213
H -5.5595189526 -0.8181981942 -0.4422699191
H -5.1235520535 0.3075774423 0.8625458308
H -2.6440718985 -1.5585696527 2.4864712887
H 1.9021800083 2.0581010812 2.5626617489
H 0.4303758859 1.6540310506 3.4670837513
H 1.7488398243 0.4804805542 3.3448512790
H 0.6993624091 -0.5850136595 -3.7368624529
H -0.5326195648 -0.6356054829 -2.4511852041
H 0.5719063961 -2.0111348600 -2.6865857012
H 3.1432540098 -0.2919666022 -3.1148340874
H 3.0598688949 -1.7361816764 -2.0817310726
H 3.6286148135 -0.1926897130 -1.4135820624
