45
CONF1219
O -0.8184457155 -0.6500527689 -2.7762250915
C -2.0106441624 -1.3753586845 -2.4942188341
C -2.5381600681 -1.1275616500 -1.0988268459
O -1.5725928077 -1.6610043820 -0.1394316942
C -1.4572656426 -0.8066230079 0.9795408052
C -1.5058537908 -1.6493350415 2.2498257983
O -2.7045788616 -2.4109038090 2.3279879364
O -0.2268055571 -0.0567239743 0.9632205321
C 0.9510054137 -0.7326293783 0.5518135637
O 1.3094714192 -0.3796615238 -0.7777292570
C 1.6307410888 1.0203675729 -0.9750839986
C 1.9727666347 1.1785156547 -2.4476547315
O 3.1105187744 0.4069569316 -2.8371571973
C 2.7832028738 1.4229680074 -0.0581551943
O 3.0076098981 2.8196565370 -0.2563597163
C 2.4318819824 1.1165019988 1.3861886007
O 3.5740805151 1.4507732401 2.1784383122
C 2.0752075052 -0.3595627227 1.5241400079
O 1.7389547907 -0.6950100865 2.8665640058
C -2.5860572350 0.2301084090 0.8340310380
O -2.3612230767 1.4441795870 1.5182170874
C -2.7279396869 0.3310342789 -0.6811748592
O -4.0003714580 0.8585086142 -1.0284083179
H -0.1839459307 -0.8085293425 -2.0547205700
H -2.7681313957 -1.0497484441 -3.2164901675
H -1.8591448596 -2.4573076076 -2.6276132190
H -3.4903558295 -1.6634569251 -0.9729061204
H -1.4911787355 -0.9780222649 3.1144525573
H -0.6150073306 -2.2926146725 2.2917835093
H -2.7086504224 -3.0151969480 1.5729667450
H 0.7974768641 -1.8151555019 0.5309102595
H 0.7484518130 1.6390159904 -0.7504241442
H 2.2214043692 2.2262568423 -2.6342391234
H 1.0941203681 0.9183436319 -3.0517558035
H 2.8918406870 -0.5229755527 -2.6929449185
H 3.6790261973 0.8447529403 -0.3336924038
H 3.6704816942 3.0931991449 0.3918189493
H 1.5680414528 1.7335023312 1.6848466532
H 3.3480482911 1.2788672808 3.1022743961
H 2.9530104373 -0.9649136670 1.2707273054
H 0.9459391181 -0.1902085122 3.1006813227
H -3.5068339929 -0.2007787922 1.2446782254
H -1.4841562150 1.7640556902 1.2607391127
H -1.9158103863 0.9514121210 -1.0876151200
H -3.9701280012 1.1343585614 -1.9530191837
