50
CONF7
C 6.5657413880 0.5585207405 0.8278761848
C 6.3932509058 1.0781565241 -0.5839010473
O 5.0483546838 0.8204627275 -1.0745520201
C 4.0957520124 1.7152467824 -0.7054788900
O 4.3327197183 2.7253681727 -0.0501195745
N 2.8661836022 1.3800501916 -1.1943215169
C 1.6961901890 2.0751136347 -0.6601010994
C 1.0748375742 1.2683040835 0.4945525701
C 0.7763284941 -0.1420493741 0.0593178711
C -0.4574033560 -0.6811365003 0.1256149462
C -1.6345234532 0.0657096277 0.6409591445
C -2.6374523961 0.4390160785 -0.2673905056
C -2.4639222429 0.0733481615 -1.7125475213
C -2.6684250803 -1.4272312069 -1.9505713177
C -1.7770528663 -2.4048839880 -1.2101726992
C -0.7583272090 -2.0813671958 -0.2920566116
N -0.0185210069 -3.0293205574 0.3221914661
C -0.2393983574 -4.3141050993 0.0396859018
C -1.2127724597 -4.7337178103 -0.8597840180
C -1.9815759984 -3.7618168054 -1.4791959698
C -3.7671998119 1.1169351184 0.1895829383
C -3.8803445627 1.4119850707 1.5426334102
C -2.9019940068 1.0522200799 2.4595356808
C -1.7791049524 0.3724566117 1.9945664081
Cl -5.3125049163 2.2735353514 2.1105096584
C 1.9582873250 -0.8321022747 -0.5670245657
C 2.5475254933 0.0399664474 -1.6914323372
H 6.3442627446 -0.5117810981 0.8750617269
H 5.9097538403 1.0890792261 1.5229620711
H 7.6019471785 0.7103307321 1.1465822362
H 7.0364264328 0.5425074042 -1.2858994449
H 6.5996556776 2.1493515456 -0.6510711733
H 1.9904483518 3.0692650041 -0.3223382170
H 0.9654038034 2.1822383223 -1.4711500081
H 1.8004710281 1.2466351272 1.3204322791
H 0.1776654924 1.7807483657 0.8486865267
H -1.4601091768 0.3655913151 -2.0438143081
H -3.1865580911 0.6172595195 -2.3276795944
H -3.7084793830 -1.6799729847 -1.7043116108
H -2.5590271096 -1.6259714994 -3.0241113022
H 0.3846051034 -5.0385857785 0.5607861665
H -1.3647819504 -5.7885985095 -1.0619926270
H -2.7542861009 -4.0473177431 -2.1889583328
H -4.5442766226 1.4154779302 -0.5065122774
H -3.0107720268 1.2923404309 3.5110054089
H -1.0032696298 0.0797675850 2.6957483581
H 2.7398392449 -0.9920069360 0.1895973127
H 1.6895702862 -1.8063779273 -0.9772754995
H 3.4367528839 -0.4253843956 -2.1139667160
H 1.8050162887 0.1520696460 -2.4917303556
