40
CONF4
C -3.0309982944 -1.5150869164 1.8904917348
C -1.9382550296 -0.8026932943 1.0752116899
C -0.5610786586 -1.2409563303 1.5985727920
C -2.1634030092 -1.1430521684 -0.4010006769
C -3.2244033036 -0.5409511662 -1.0877492099
C -3.4840700997 -0.8553385774 -2.4151093657
C -2.6853908369 -1.7784251146 -3.0867267946
C -1.6275432264 -2.3799654741 -2.4167873527
C -1.3685959183 -2.0659828449 -1.0835503465
N -2.1382967880 0.6481620335 1.2977906326
C -1.2507623520 1.6411804006 0.8835392432
O -1.0833979168 2.6604073296 1.5486196104
N -0.6442723876 1.4488522566 -0.3313262848
C 0.4820527398 2.2933293906 -0.7036756010
C 1.7512300922 1.9076782112 0.0207030056
C 2.2085812855 2.6715582488 1.0970444183
C 3.3486417176 2.3133325318 1.8070312966
C 4.0579267450 1.1713985345 1.4503421287
C 3.6245417534 0.3854739222 0.3874856838
C 2.4811683634 0.7629515869 -0.3046070290
Cl 1.9406624397 -0.2660092072 -1.6348418507
H -4.0242835450 -1.1760849674 1.5841097545
H -2.9009730257 -1.3198183259 2.9614522498
H -0.4523571525 -0.9041652765 2.6335638390
H -0.4562860441 -2.3296582966 1.5886096485
H 0.2552126898 -0.8067431766 1.0138500380
H -4.3079982213 -0.3721368940 -2.9307247168
H -2.8836110302 -2.0198756041 -4.1259141942
H -0.9922777395 -3.0944957944 -2.9306981995
H -0.5287877699 -2.5390710535 -0.5883275707
H -0.7644091608 0.5755967673 -0.8224826220
H 0.2301739092 3.3278298960 -0.4587235730
H 0.6189324841 2.2170776498 -1.7860956070
H 1.6351641653 3.5471809809 1.3831840975
H 3.6801245470 2.9230114626 2.6407693071
H 4.9499522705 0.8833590490 1.9968172102
H 4.1642508001 -0.5080457720 0.0958385081
H -3.8303901068 0.1987715144 -0.5745904651
H -2.4505502141 0.8672761373 2.2341825636
H -2.9692334929 -2.5939568970 1.7282663540
