55
CONF16
C -3.2695684982 0.8540906687 -1.4432946568
C -2.6538952859 0.2998275361 -0.1304383415
C -3.3597445312 1.0962906511 0.9975988102
C -3.4876221394 0.3948009916 2.3471786895
C -4.0706782553 -0.9873492490 2.2039682023
O -4.7716277994 -1.5057269365 3.0620085571
C -3.6711696870 -1.7184610743 0.9970208089
C -2.9843790168 -1.1761254801 -0.0267793800
C -2.4446950789 -2.0403541536 -1.1242265394
C -0.9177279414 -1.9033175831 -1.1293266648
C -0.4874525397 -0.4424295232 -1.3174433867
C -1.0888491792 0.5014057274 -0.2328578263
C -0.2807702422 0.3936812798 1.0738063756
C 1.2170324190 0.6144592667 0.8335253979
C 1.8740190573 -0.3229239556 -0.1843301096
C 1.0342616171 -0.3019118598 -1.4857026164
C 1.4615205542 0.9897905337 -2.1895552621
C 2.9774754498 1.0642041098 -1.9703490673
C 3.2689019294 0.2412274564 -0.6872926804
C 3.9932895454 1.0457468725 0.3652134942
O 3.7832913374 2.2331932026 0.5526447376
C 5.0332734335 0.3460724601 1.2138171227
O 5.5773765547 1.1870930840 2.1924675414
C 2.0672346542 -1.7175203004 0.4171136519
O -0.6854410884 1.3531244663 2.0612553320
H -4.3331690469 0.6016187381 -1.4932243909
H -2.7949130219 0.4800825418 -2.3509814038
H -3.1810067134 1.9460115736 -1.4425780858
H -4.3796756455 1.2955572933 0.6435015214
H -2.8747128404 2.0688091039 1.1176555503
H -2.5095209254 0.2888786075 2.8276320458
H -4.1153561587 0.9717285849 3.0323531027
H -3.9276479631 -2.7757765205 0.9848644082
H -2.7383729550 -3.0822232373 -0.9663682571
H -2.8416034722 -1.7308354857 -2.0996654744
H -0.4882740075 -2.5115882122 -1.9344191036
H -0.5381780482 -2.3113747451 -0.1878267112
H -0.9049664762 -0.1286290765 -2.2828411218
H -0.9524807491 1.5385615183 -0.5790244946
H -0.4602746497 -0.5804123783 1.5476757425
H 1.3466018201 1.6547632806 0.5043930457
H 1.7245719111 0.5418486380 1.8037287953
H 1.3754059825 -1.1422922384 -2.1102553489
H 0.9656334914 1.8569027455 -1.7406317683
H 1.1905796557 0.9815331684 -3.2499138779
H 3.5091793068 0.6140390140 -2.8138482203
H 3.3279698511 2.0932398582 -1.8671426029
H 3.8883886731 -0.6314301393 -0.9289754683
H 5.8139260877 -0.0287754299 0.5266482046
H 4.5782155134 -0.5465301480 1.6743849556
H 5.1744923950 2.0580761087 2.0342965918
H 2.3745512632 -2.4369808496 -0.3494303456
H 1.1579815950 -2.0943710245 0.8893615838
H 2.8374812073 -1.7017912904 1.1945772175
H -0.3388822437 2.2124720214 1.7913266030
