24
CONF196
C 2.5510362661 -0.6353344854 -1.0968491031
C 1.4586571737 0.0575450513 -0.2927381230
C 0.1310757488 -0.7164598802 -0.3297475469
C -0.7680452597 -0.4068078007 0.8618338818
C -1.1705229356 1.0650754447 1.0729598775
C -1.9270230199 1.6412225691 -0.1042322982
O -3.0498906178 2.0772864247 0.0262883684
O -1.9777959823 1.1088935155 2.2363032836
O -1.9408125166 -1.2016685037 0.6809651843
O 0.4255131675 -2.1166864166 -0.3313853534
O 1.2361075355 1.3823660400 -0.7879503394
O 2.1503487226 -0.7910701460 -2.4619183610
H 3.4356685776 0.0096675743 -1.1041197573
H 2.8145867071 -1.5954605682 -0.6400636400
H 1.8038381680 0.1633420268 0.7453284147
H -0.3958762726 -0.4491937056 -1.2609090868
H -0.2353218365 -0.7239000599 1.7746520426
H -0.2590422492 1.6724421708 1.1992657829
H -1.3937155062 1.6726710338 -1.0715828109
H -2.7811652655 1.5946085414 1.9783650484
H -2.5222412163 -1.0051799044 1.4283553807
H -0.4102492880 -2.5717329593 -0.1590115083
H 1.2802041323 1.3113484651 -1.7528178820
H 1.5446652645 -1.5429747131 -2.4852984487
