54
CONF434
C 2.3685055389 -1.2358207813 2.9444457835
C 1.9911577939 0.2218530108 3.2066814559
C 1.9693110596 1.0124433872 1.9231568780
C 1.9687985131 0.3591180764 0.6833764454
C 2.0020765008 1.0800361810 -0.5122494756
C 2.0184904494 2.4679114115 -0.4938477335
C 1.9882710520 3.1022363132 0.7365115610
C 1.9714979735 2.4109187715 1.9323482992
F 1.9782815009 4.4674954404 0.7682766094
O 1.9519071954 -1.0065508060 0.5663530537
C 1.5685910757 -1.7359578504 1.7559646559
C 1.7880380358 -3.2061530774 1.4091863877
C 0.9720133654 -3.6502701552 0.1957121115
N -0.4577961154 -3.4433975577 0.4278950248
C -1.2966967912 -3.6978845367 -0.7426704792
C -1.1892867211 -2.6044392166 -1.8185327122
C -1.1735646946 -1.1997872464 -1.2221566728
C -2.4235047427 -0.7786228299 -0.4701686243
C -2.1737146603 0.5984681276 0.1420896184
C -1.6115187234 1.5379915486 -0.8918209543
C -1.0395182195 1.0375253259 -2.0706085623
O -0.9298895238 -0.3000670231 -2.3357352962
C -0.5579648091 1.9032325556 -3.0561946823
C -0.6109218011 3.2788185313 -2.8716387112
C -1.1511527479 3.7570270977 -1.6894583011
C -1.6556500275 2.9228103439 -0.7115323576
F -1.1952769052 5.1071668078 -1.4869543684
O -2.2250099035 -2.7887495779 -2.7915028637
O 1.4099436036 -3.9437554624 2.5815915173
H 2.1545651421 -1.8519549762 3.8205019068
H 3.4380284826 -1.3286373996 2.7160718152
H 0.9995497015 0.2638756492 3.6765123299
H 2.6902502017 0.6861356097 3.9102093451
H 2.0007290154 0.5406305753 -1.4538596849
H 2.0252361789 3.0438290497 -1.4120534630
H 1.9698268015 2.9524101761 2.8738409589
H 0.4956696567 -1.5658626950 1.9288051040
H 2.8568819665 -3.3568409692 1.1893093604
H 1.2929890811 -3.0582735832 -0.6683353198
H 1.2214117896 -4.7050842978 -0.0276789271
H -2.3395696630 -3.7325577529 -0.4007940433
H -1.0852190992 -4.6655180363 -1.2332998501
H -0.2584881949 -2.7219095950 -2.3862428802
H -3.2763533650 -0.7407102279 -1.1594127679
H -2.6467510505 -1.5094447176 0.3119256486
H -3.0942870635 1.0179328047 0.5609373533
H -1.4620245393 0.5002162394 0.9741855917
H -0.1300232246 1.4845242792 -3.9614406822
H -0.2328273261 3.9643837467 -3.6221699919
H -2.0891292244 3.3434906062 0.1911954694
H 1.6136517055 -4.8735828569 2.4188682249
H -0.3108437504 -1.1329675406 -0.5460050537
H -3.0742761144 -2.8031300740 -2.3299946863
H -0.7520157497 -4.0564248646 1.1804705246
