73
CONF1333
C 0.2204177315 0.9655059159 -3.5674578937
C -0.1188769207 1.3693013335 -2.1503734267
O -1.5103439021 1.7685698152 -2.1500440601
C -2.0203119742 2.1307563540 -0.8866680703
O -2.0423526234 1.0373889473 0.0236469397
C -3.0669293350 0.0737647145 -0.2347062369
C -4.2464062461 0.2802806370 0.7160327122
O -4.8894487212 1.5426442456 0.5259994159
C -5.2440608245 -0.8687811256 0.5917534074
O -6.2673543147 -0.7638433569 1.5781609041
C -4.5293742337 -2.2008787001 0.8072729436
C -5.4215583052 -3.4120905078 0.5979623897
O -6.0192539959 -3.4401694075 -0.6976394050
O -3.4596111276 -2.3148485880 -0.1503824412
C -2.4741304305 -1.3145175376 0.0076670371
O -1.5207151661 -1.5849239109 -1.0002694658
C -0.2210823525 -1.8804234704 -0.7167998302
C 0.5211103201 -2.2614581176 -1.8375792893
C 1.8768939802 -2.5081476404 -1.6997553924
O 2.5881979519 -2.8636443069 -2.7807858716
C 2.5114070372 -2.4006481532 -0.4301733563
C 3.9034690100 -2.7171583352 -0.2603701944
O 4.6322865347 -3.0744918914 -1.2071435635
C 4.4379712832 -2.6436413393 1.1467827877
C 3.6753720516 -1.6317155453 1.9844362133
O 2.2381978971 -1.9394071265 1.9239540878
C 1.7152780213 -2.0293407623 0.6773557632
C 0.3611023536 -1.7558925843 0.5490964312
C 3.8632678469 -0.1804709478 1.6064565396
C 3.1559890235 0.7830898909 2.3362126875
C 3.2203066129 2.1272088582 2.0061363808
C 4.0070394701 2.5295870218 0.9252776218
O 3.9909153127 3.8603293469 0.6048059653
C 4.7460221777 1.5932202830 0.2070462253
C 4.6657575402 0.2453338859 0.5481571625
C -1.2104814897 3.2439221115 -0.2225985097
O -1.4665996871 4.4306947455 -0.9730221941
C 0.2778325095 2.9065414403 -0.2253479320
O 0.9579305466 4.0613401563 0.2693109731
C 0.7409687184 2.5224396814 -1.6266629746
O 2.1315937640 2.1838594639 -1.6230997169
H 0.0952323583 1.8153507686 -4.2464143574
H -0.4329578038 0.1514229599 -3.8932891138
H 0.0082337047 0.5128465236 -1.4725567926
H -3.0369139779 2.4891076768 -1.0844054417
H -3.3957558195 0.1244539648 -1.2828046675
H -3.8636109539 0.3053810504 1.7450737798
H -5.6773536503 -0.8628138714 -0.4222873848
H -6.6025835304 0.1427728706 1.5410047481
H -4.1234329655 -2.2344093238 1.8324825346
H -6.2376774085 -3.3784428178 1.3241342263
H -4.8285081203 -4.3194366748 0.7799363900
H -5.3053539811 -3.5130571765 -1.3442294962
H -2.0391215544 -1.3685498420 1.0136502156
H 0.0423237696 -2.3404886294 -2.8060957979
H 3.5189748037 -3.0194902630 -2.4594833290
H 5.5093660354 -2.4285255241 1.1313703590
H 3.9084558856 -1.7716215786 3.0433117196
H 2.5321692686 0.4701739494 3.1684216870
H 2.6592672481 2.8696081673 2.5643356842
H 4.5339179976 4.0123581695 -0.1817067250
H 5.3619729993 1.9106278432 -0.6297220535
H 5.2437903744 -0.4649151996 -0.0335732722
H -1.5592920042 3.3607899564 0.8142138659
H -0.7866148487 5.0682066924 -0.7125262292
H 0.4436184705 2.0438140609 0.4441517111
H 1.9097326287 3.9420509798 0.1213218185
H 0.6467426359 3.3831910340 -2.2987936802
H 2.2598339477 1.4222046781 -1.0369629670
H 1.2556107353 0.6204080192 -3.6197471056
H 4.3115390393 -3.6393948752 1.5928951754
H -5.2513338971 1.5649933117 -0.3719992538
H -0.1769234098 -1.4244503410 1.4258646136
