38
CONF22
C -6.7285849205 -0.4696557003 -0.6910941959
C -5.3000943373 -0.8503922702 -0.3289151387
C -5.0263999929 -0.4469400918 1.1216596202
O -4.6395532753 0.6348375132 1.4805972045
O -5.3382595415 -1.4689215394 1.9504254961
C -5.2001155918 -1.1660502736 3.3583572071
O -4.4487234468 -0.1396015781 -1.2151343095
C -3.1081562603 -0.4119754182 -1.1783460279
C -2.3231506522 0.3501893873 -2.0487546666
C -0.9554802287 0.1486410420 -2.1097330773
C -0.3758045425 -0.8134390997 -1.2932693818
C -1.1360583231 -1.5756475142 -0.4290903491
C -2.5150749332 -1.3788838867 -0.3662591211
O 0.9964657020 -1.0906897990 -1.4011562903
C 1.8668517532 -0.2379938298 -0.8219931988
C 3.2413047512 -0.5036463225 -0.9966390077
C 4.1555486983 0.3445645032 -0.4119509384
C 3.6843099725 1.4306571362 0.3316565360
C 2.3149068907 1.6119733966 0.4500509976
N 1.4284603533 0.7887619157 -0.1176233006
C 4.6666416239 2.3766935203 0.9471982370
F 5.2972192453 3.1261109474 0.0058257729
F 5.6389670832 1.7157269062 1.6238474135
F 4.0803157524 3.2318293376 1.8109491020
Cl 3.7676500742 -1.8747083673 -1.9284789225
H -7.4332006236 -0.9945194181 -0.0411960705
H -6.9279958809 -0.7453518554 -1.7291841665
H -6.8638431587 0.6086759313 -0.5755193007
H -5.1568416566 -1.9341348117 -0.4386838367
H -5.4852656796 -2.0779344222 3.8818640923
H -4.1662132877 -0.8935938599 3.5839717485
H -5.8581065418 -0.3377802798 3.6328575403
H -2.8075608909 1.0960239003 -2.6686631731
H -0.6551206736 -2.3211771198 0.1942765216
H -3.0973489573 -1.9842894097 0.3179442216
H 5.2184983903 0.1643530724 -0.5278141514
H 1.9079986809 2.4411948257 1.0216381666
H -0.3356313118 0.7338858974 -2.7797670464
