38
CONF18
C -6.6169611342 0.5775662843 1.5699485719
C -5.1898283343 0.9005962411 1.1505114763
C -5.0519519070 0.7091494367 -0.3590090048
O -5.3612770471 1.5708581505 -1.1555754608
O -4.6169535502 -0.5109039120 -0.6826628019
C -4.4904982429 -0.7735000460 -2.1056333746
O -4.3322997323 0.0430664278 1.9057082490
C -2.9798731883 0.2324714028 1.8120800996
C -2.1997557149 -0.6799081977 2.5297992125
C -0.8169835648 -0.5790474078 2.5110162284
C -0.2247781349 0.4342611476 1.7700897651
C -0.9799360139 1.3471205907 1.0575144622
C -2.3706611653 1.2499070260 1.0737012741
O 1.1726622177 0.5840622844 1.8171944708
C 1.9112772789 -0.0326375190 0.8708648070
C 3.3097439503 0.1278679569 0.9395627351
C 4.0962349257 -0.4851586433 -0.0095628786
C 3.4697493966 -1.2420948238 -1.0049258281
C 2.0878730064 -1.3494208237 -0.9960971368
N 1.3274008946 -0.7518145252 -0.0712202320
C 4.3078830409 -1.9324727959 -2.0327954654
F 5.2119301307 -1.0891067348 -2.5938440558
F 3.5684402155 -2.4535230209 -3.0349331677
F 5.0261346339 -2.9556726152 -1.4955126974
Cl 4.0257287160 1.0874206807 2.2047433117
H -6.7312346048 0.7653114136 2.6401227050
H -6.8462082464 -0.4709630447 1.3612648096
H -7.3154358509 1.2143724833 1.0221595010
H -4.9651825311 1.9530106804 1.3643038007
H -5.4643109120 -0.6774836951 -2.5907280305
H -3.7802975820 -0.0725529033 -2.5499963282
H -4.1209462261 -1.7951184371 -2.1762898776
H -2.6916699922 -1.4614639044 3.0989013451
H -0.4904416058 2.1307677280 0.4890019760
H -2.9481416917 1.9748994629 0.5126083809
H 5.1751409833 -0.3767542092 0.0201226338
H 1.5648025311 -1.9292787161 -1.7509550420
H -0.1996412656 -1.2801542841 3.0626257314
