51
CONF73
O 3.3036161474 2.2042374904 -0.9858474007
C 3.5018077794 1.1414250385 -0.0344087450
C 2.1740180379 0.5054018115 0.3805544170
C 1.1974083831 1.5030555138 1.0015035976
C -0.1259767825 0.8423465647 1.3484316914
C -1.0713542114 0.4718787935 0.1513838348
N -2.0616272499 1.3992129535 0.7550012143
C -1.2503493185 1.7739335262 1.8018169129
O -1.4044915665 2.5762786696 2.7052671495
C -3.3362470125 1.7656194123 0.3218708936
C -4.1625618863 2.5626863341 1.1261785171
C -5.4279725253 2.9203336349 0.6768874622
C -5.8487144949 2.4688303713 -0.5631390381
F -7.0889095920 2.8179272535 -0.9987340671
C -5.0564015497 1.6763290549 -1.3749922008
C -3.7877326188 1.3244164681 -0.9275404357
C -1.5154335675 -0.9537202294 0.0225373332
C -1.0934858190 -1.7238081732 -1.0635890822
C -1.4543554433 -3.0607544126 -1.1800443813
C -2.2608179612 -3.6440099693 -0.2019235316
O -2.5963720506 -4.9578058510 -0.3628908244
C -2.6993402053 -2.8856884751 0.8866159361
C -2.3231242951 -1.5523758192 0.9927078717
C 4.4762566057 0.1011530286 -0.5473986253
C 5.6142824610 -0.2239516075 0.1918838928
C 6.5120641132 -1.1928102377 -0.2533970377
C 6.2453958557 -1.8222058262 -1.4557274418
F 7.1165205862 -2.7638866347 -1.9080152413
C 5.1293512514 -1.5304847223 -2.2233305832
C 4.2448967603 -0.5639737218 -1.7558377907
H 2.7193322602 1.8789112979 -1.6837166627
H 3.9494919679 1.6312069696 0.8384597479
H 1.7216796900 0.0307196480 -0.5026876967
H 2.3849059900 -0.3003491494 1.0948377849
H 1.6332733882 1.9303253021 1.9134644618
H 1.0163430893 2.3340575180 0.3096126945
H 0.0108695378 -0.0007964642 2.0351669096
H -0.6917399309 0.8503875233 -0.8056111137
H -3.8140612928 2.8993769602 2.0944727816
H -6.0816654634 3.5382844519 1.2828354715
H -5.4222233151 1.3431463921 -2.3400441665
H -3.1507487282 0.7064296429 -1.5506178368
H -0.4733354206 -1.2711259120 -1.8330566465
H -1.1249691618 -3.6563684576 -2.0253821313
H -3.1589906453 -5.2408733919 0.3709400624
H -3.3330973783 -3.3398217732 1.6438771392
H -2.6727468018 -0.9700674132 1.8411837999
H 5.8087178991 0.2865480095 1.1310793855
H 7.4006258448 -1.4492628429 0.3133654188
H 4.9615243784 -2.0495523224 -3.1608687024
H 3.3664640494 -0.3307665243 -2.3514288989
