49
CONF31
C -3.7001282824 -0.4070702865 -1.2644601726
C -2.5125244497 -1.1171282889 -1.8806617745
C -1.3402509229 -1.5754792901 -1.0010273319
C -1.1919896157 -0.4140630033 -2.0139408665
C -0.2859353990 -0.6934086598 -3.1966832801
C -1.0191105021 0.9996159530 -1.5035084797
C -1.2604645129 -1.3293316831 0.4398574009
O -1.7913751435 -0.4563708577 1.0920380693
O -0.4061753754 -2.2573106325 1.0063761594
C -0.1603935237 -2.0926864781 2.4183976762
C -0.2679622881 -3.4151525690 3.0297211929
N -0.3584125151 -4.4495972853 3.5342544666
C 1.1836200979 -1.4268944312 2.6630240614
C 2.0222788304 -1.8378078470 3.6958173745
C 3.2195137152 -1.1611785953 3.9161539452
C 3.5810334175 -0.0809984004 3.1242400231
C 2.7327949555 0.3181362612 2.0936822966
C 1.5365326944 -0.3485621714 1.8534993894
O 3.1834104701 1.3451754138 1.2939941126
C 2.2859940975 2.2045508316 0.6872048170
C 1.1626986925 2.6985625231 1.3468627806
C 0.3563341686 3.6297293885 0.7015016817
C 0.6690750151 4.0735909069 -0.5807491263
C 1.7989184155 3.5756679956 -1.2233193348
C 2.6089412836 2.6347355148 -0.5961219850
C -2.9488719268 -2.1112096156 -2.9408906880
H -4.2367307243 0.1392660524 -2.0486453884
H -3.4293566684 0.2885220655 -0.4743921596
H -4.3914959787 -1.1407261991 -0.8365230542
H -0.8614795269 -2.5009408206 -1.3032192521
H -0.5801466778 -0.0698398886 -4.0489863949
H 0.7474430061 -0.4387916156 -2.9383560530
H -0.3016401456 -1.7354978494 -3.5175514186
H -1.5675747514 1.2052684428 -0.5863343421
H -1.3482998080 1.7089939470 -2.2715364748
H 0.0400705198 1.2003422308 -1.3076869597
H -0.9576957040 -1.4567338427 2.8304201660
H 1.7513874511 -2.6840117190 4.3178610071
H 3.8784555944 -1.4831335258 4.7156201758
H 4.5108930429 0.4542240719 3.2798994122
H 0.8933991811 -0.0269323858 1.0430260629
H 0.9269778955 2.3599006471 2.3496355029
H -0.5203122314 4.0148543934 1.2122813227
H 0.0356771217 4.8023071393 -1.0748928460
H 2.0517907548 3.9153628142 -2.2225813788
H 3.4946067464 2.2358181310 -1.0783589468
H -3.3888941020 -1.5826016559 -3.7941972163
H -3.7128117853 -2.7794264765 -2.5302295666
H -2.1318149926 -2.7317388399 -3.3108456140
