43
CONF11
C -2.3840965903 -1.3127029815 1.0268390127
C -2.5239656771 -2.4471927629 -0.0263163274
C -2.4953009190 -1.6959020483 -1.3811218778
C -2.3721404533 -0.2015018515 -0.9745433873
C -0.8879550485 0.2403164203 -0.8676598585
C -0.1570978646 -0.7348210956 0.0534170569
C -0.9121401748 -1.0150700250 1.3478702171
O 1.1691647449 -0.1954163529 0.3146320711
C 2.1497598957 -1.0802659554 0.5786732739
O 1.9893750842 -2.2876336303 0.5962005619
C 3.4485517710 -0.4074326278 0.8401209158
C 4.5701187166 -1.2093279410 1.0767124868
C 5.8050087837 -0.6239064639 1.3252946695
C 5.9272007429 0.7648851817 1.3417402470
C 4.8113021886 1.5671102778 1.1093464363
C 3.5731968673 0.9866881997 0.8584536161
C -0.8360427117 1.6847044066 -0.4104297887
O -0.5270186976 2.0977275954 0.6862112949
O -1.2118624678 2.4923837651 -1.4254740231
C -1.2598817002 3.9060055611 -1.1150821270
N -2.9551554006 -0.1098072068 0.3771080533
C -4.4221201099 -0.1403150564 0.3423897317
H -2.9243249774 -1.5286647762 1.9536408909
H -1.7196065299 -3.1829629508 0.0658062945
H -3.4691743943 -2.9797215757 0.1066295736
H -1.6729436984 -2.0121545584 -2.0292594134
H -3.4232939287 -1.8495657390 -1.9378531506
H -2.8938461040 0.4675380103 -1.6638431013
H -0.4423764268 0.1960467696 -1.8681255798
H -0.0189113857 -1.6705259455 -0.4951684921
H -0.4569615943 -1.8714900828 1.8555266453
H -0.8533946091 -0.1434173743 2.0052655101
H 4.4607570908 -2.2881985208 1.0617807691
H 6.6732719043 -1.2490416074 1.5068820689
H 6.8922702240 1.2221284536 1.5365194104
H 4.9065321907 2.6480815465 1.1242248554
H 2.7047995032 1.6099261997 0.6797718093
H -0.2662904901 4.2639719689 -0.8343873862
H -1.5977926829 4.3918484569 -2.0296687679
H -1.9628115173 4.0899210813 -0.2989417246
H -4.8047853620 -0.1066551211 1.3673550199
H -4.8437383467 -1.0316001978 -0.1519025258
H -4.7862800302 0.7460106446 -0.1871076580
