76
CONF471
C 3.1851689263 1.5690625467 -0.9212912295
C 3.1978006323 0.2545702360 -0.1366516472
C 4.4534209889 -0.5640507765 -0.4888832724
C 5.7877459834 0.1177199264 -0.1248395976
C 5.8332922295 0.5452398018 1.3102351074
O 5.7315480868 -0.4238575931 2.2558926981
N 5.9375571192 1.7679686178 1.6526917541
C 5.9418334744 2.1039435372 3.0674082688
C 6.0112701337 3.6133539726 3.2327599078
O 6.0481193594 4.3034325733 2.0852851182
O 6.0301626421 4.1658362040 4.3124555313
C 1.9437613771 -0.6059079732 -0.3732355878
C 1.9605382804 -1.9166321148 0.4730885928
C 0.4876584638 -2.2656475843 0.8012791700
C -0.3175469210 -1.2872682794 -0.0564692640
C -1.7850909254 -1.0620924701 0.2937270052
C -2.5749904770 -2.3805303764 0.3396892220
O -2.4149021925 -3.1637993787 -0.8639530943
C -4.0661932989 -2.1372245539 0.5481719572
C -4.6869503334 -1.0938555091 -0.3926972703
C -4.8801684459 -1.6485971603 -1.8165994385
C -5.5102380370 -0.6362467251 -2.7624409650
O -5.6975873459 -1.1949367210 -4.0779878632
C -4.6777053981 0.6382927051 -2.7981291505
C -4.5486239998 1.2052174598 -1.3854014739
C -3.8970310502 0.2442901563 -0.3659163400
C -4.0534769855 0.9096724798 1.0138128664
C -2.4037335861 -0.0496307605 -0.6964287732
C -1.5469474857 1.2204366158 -0.7978333287
C -0.0597696144 0.9687844353 -1.0821446648
O 0.1242594240 0.4109672746 -2.3989789659
C 0.5438392678 0.0005884490 -0.0520611821
C 0.5722504800 0.6823515208 1.3244258147
H 3.0313726461 1.3784466007 -1.9899088408
H 4.1284512589 2.1102234016 -0.8046464323
H 2.3931960680 2.2368437788 -0.5779827011
H 3.2447517503 0.4913771951 0.9375177319
H 4.4103944430 -1.5403187923 0.0056723298
H 4.4620507865 -0.7699135045 -1.5669967983
H 5.9706111339 0.9983226724 -0.7419525997
H 6.6097896999 -0.5868431046 -0.3069974927
H 5.6696138676 -1.2960001718 1.8400696412
H 6.7982817402 1.6733862098 3.6055765823
H 5.0395178022 1.7573510597 3.5913309194
H 6.0226342304 3.6192831588 1.3710606809
H 1.9304304444 -0.8801581381 -1.4357373760
H 2.4452198497 -2.7288661798 -0.0757580253
H 2.5403673672 -1.7651191856 1.3916372910
H 0.2699294099 -2.1063990021 1.8639099092
H 0.2574072280 -3.3142037355 0.5844176697
H -0.2793845161 -1.6444675208 -1.0958192784
H -1.8346811078 -0.6567771626 1.3133368429
H -2.2022841345 -2.9741981898 1.1892775679
H -1.4913761576 -3.4388245953 -0.9145759233
H -4.1992594245 -1.8115214916 1.5863945432
H -4.5979951322 -3.0916592857 0.4498677098
H -5.6930027294 -0.8671176430 -0.0061347591
H -3.9191558061 -1.9630815233 -2.2381569769
H -5.5107946886 -2.5451734288 -1.7653382088
H -6.5243637927 -0.3883460300 -2.4194593341
H -4.8256126398 -1.4588787309 -4.4004268545
H -3.6886753016 0.4079342192 -3.2195016305
H -5.1507521307 1.3727502110 -3.4605399157
H -5.5593772221 1.4328437776 -1.0163612562
H -4.0131192973 2.1602643438 -1.4002064304
H -3.6339736598 1.9206878329 1.0097985493
H -5.1177176883 0.9970602476 1.2600416059
H -3.5718872545 0.3525566644 1.8205528340
H -2.3756430977 -0.5350406063 -1.6803869087
H -1.9257823766 1.8671394930 -1.5992613899
H -1.6241770013 1.8065763631 0.1244650067
H 0.4552764181 1.9383110256 -1.0336842889
H -0.3707869672 0.9644841350 -3.0153279266
H -0.4298850131 0.8885453340 1.7070130332
H 1.0850513612 0.0599712960 2.0627776752
H 1.1060670518 1.6370983713 1.2710795879
