33
CONF6
C -3.3358375972 2.1985522207 0.0619576715
C -2.5154340814 1.0107078938 0.5641555458
C -3.4077528155 -0.0496314932 1.1845011892
O -2.7050747041 -0.8628499507 2.0079572260
O -4.5900138100 -0.1916032511 0.9686277738
C -1.7016287469 0.3556695965 -0.5411878188
C -2.3375296707 -0.2098298741 -1.6496996156
C -1.5919610896 -0.7836767423 -2.6763826493
C -0.2053358481 -0.7974520591 -2.6094817226
C 0.4435604232 -0.2625993445 -1.4923031844
C -0.3117339713 0.3104194836 -0.4635136884
C 1.9358747909 -0.2577241774 -1.4678522690
O 2.5694637791 -0.1729657802 -2.5138569863
C 2.6465567261 -0.3602314987 -0.1608919709
C 2.1158561450 -1.0771733865 0.9182056233
C 2.8470946183 -1.2119886813 2.0936570619
C 4.0998414488 -0.6148842265 2.2084048234
C 4.6330985611 0.1021246379 1.1371770126
C 3.9169574600 0.2171378223 -0.0459551875
H -3.8930174119 2.6559303733 0.8841186494
H -4.0526110468 1.8832109358 -0.6994619074
H -2.6687505151 2.9468660863 -0.3734750041
H -1.8174078896 1.3382961338 1.3416717360
H -3.3150678016 -1.5423348858 2.3399280547
H -3.4221474899 -0.2024136753 -1.7108069027
H -2.0986207599 -1.2197361869 -3.5313137973
H 0.3894927637 -1.2274945932 -3.4081160463
H 0.1899845833 0.7501852616 0.3929772222
H 1.1450855386 -1.5533142944 0.8277112300
H 2.4387804662 -1.7839216160 2.9206536324
H 4.6643083156 -0.7117809443 3.1305165867
H 5.6098684956 0.5666574080 1.2266533814
H 4.3241013404 0.7578489030 -0.8938541555
