47
CONF17
C -6.5064630711 -2.6325309482 -2.3870421878
O -6.0969721557 -1.7327915670 -1.3178665706
P -5.1647453305 -0.4766221644 -1.6447250097
S -3.5931451671 -0.7836681695 -2.7434284871
O -6.2374715990 0.5853572982 -2.1704237232
C -5.7946586212 1.8722213421 -2.6860402783
O -4.8853760729 0.0873726793 -0.1489300928
C -3.7760833258 -0.3249019834 0.5941165838
C -2.7855660629 0.6140378465 0.8547781365
C -1.6960699789 0.2496852775 1.6338207189
C -1.5896316037 -1.0579215075 2.1173257502
C -2.5922673603 -1.9891066209 1.8428990995
C -3.7017843134 -1.6192612173 1.0880556168
S -0.2266702306 -1.5555081049 3.1629374393
C 1.1979855474 -0.9422117051 2.2721099911
C 1.2728228492 -0.9754564552 0.8767651934
C 2.4189222571 -0.5281572655 0.2329296158
C 3.4948548351 -0.0808956951 0.9894670219
C 3.4466482955 -0.0624879666 2.3769841233
C 2.2855175254 -0.4824914005 3.0182384091
O 4.6489622531 0.3045600367 0.3063470214
P 5.2388856835 1.8248845377 0.3901516885
S 3.9109799273 3.2332403345 0.4353583507
O 6.2710224737 1.7738212744 -0.8289209717
C 5.7734713286 1.7429924512 -2.1961896468
O 6.2149384731 1.8600517961 1.6507079214
C 7.2539948268 0.8451140244 1.8115129182
H -7.0875799897 -3.4160222907 -1.9018907484
H -5.6260312677 -3.0580363432 -2.8750473848
H -7.1251838954 -2.0967308870 -3.1117409610
H -5.1359082717 1.7234766193 -3.5451658085
H -6.7021533452 2.3941334250 -2.9878318587
H -5.2793130853 2.4333919193 -1.9016335962
H -2.8784771861 1.6191176874 0.4576177385
H -0.9238177800 0.9790076058 1.8547797943
H -2.5086134028 -3.0053372136 2.2134919213
H -4.4888647212 -2.3333236560 0.8717056451
H 0.4363439813 -1.3404585803 0.2905167620
H 2.4885056442 -0.5341384918 -0.8495952101
H 4.2955416984 0.2913194474 2.9526221286
H 2.2291233648 -0.4480591563 4.1014094095
H 6.6588615766 1.7307235455 -2.8308314223
H 5.1786811774 0.8402147547 -2.3581982747
H 5.1759367369 2.6365519423 -2.3947035711
H 8.0162905133 0.9690743636 1.0397144319
H 7.6796399342 1.0205097481 2.7988168534
H 6.8149158345 -0.1547403765 1.7620715104
