55
CONF187
C 4.2259190112 -4.1282167305 -2.6910570200
O 4.8389182657 -3.0333287980 -1.9948218896
C 4.0259451320 -2.2022420558 -1.2867694914
C 2.6391470675 -2.3476460714 -1.1865286594
C 1.9060551490 -1.4352039366 -0.4317960043
C 2.5250085067 -0.3727796358 0.2273286745
C 3.9164307275 -0.2512005031 0.1256465853
C 4.6625202407 -1.1477390706 -0.6216059989
C 1.7630120585 0.6604203921 1.0154784719
S 0.5958703168 -0.2125346536 2.1770421016
C -0.5960815611 1.0583576180 2.5569166799
C -0.7107818750 1.5103528175 3.8745379889
C -1.6935504213 2.4289331766 4.2244026413
C -2.5526491478 2.9285540705 3.2483942687
C -2.4365285308 2.5013967480 1.9314647676
C -1.4727133781 1.5556700700 1.5745975694
N -1.4138559625 1.1070409470 0.2248411699
C -2.6212195920 0.4916435881 -0.3520709742
C -2.6634162041 -0.9971622063 -0.0020123446
N -3.8431249165 -1.6614055424 -0.5588297697
C -5.0586056677 -1.2917554899 0.1742083254
C -3.6637234232 -3.1156821464 -0.5022792818
C -0.2613123851 1.0780905398 -0.5055602516
O -0.2037508554 0.6254555425 -1.6460977028
C 0.9729049912 1.6796333387 0.1731960637
O 1.8903593785 2.1643147982 -0.8207671389
C 1.4581542831 3.2295150948 -1.5435164271
C 2.4535034740 3.6077218195 -2.5933156113
O 0.3876361528 3.7660014175 -1.3477003908
H 3.7187094893 -4.8030587978 -1.9919916965
H 5.0416065633 -4.6566153058 -3.1848822372
H 3.5130150018 -3.7665850307 -3.4409494991
H 2.1214996804 -3.1593624398 -1.6825404094
H 0.8314345657 -1.5651194226 -0.3602960280
H 4.4210761716 0.5640296990 0.6365689767
H 5.7405020114 -1.0484624692 -0.6983732137
H 2.4737845615 1.2339566692 1.6185884535
H -0.0255796053 1.1280991923 4.6237408369
H -1.7774272458 2.7633817818 5.2531100631
H -3.3075660943 3.6634856116 3.5077066405
H -3.0914943637 2.9075355887 1.1676868548
H -2.5968291350 0.6266231927 -1.4353043583
H -3.4890665888 1.0196383642 0.0460577263
H -1.7686218601 -1.4684818382 -0.4251470501
H -2.6062629662 -1.1141607390 1.0995616345
H -5.9172002762 -1.8132724442 -0.2601649801
H -5.2480923095 -0.2174987626 0.0992972448
H -4.9956297391 -1.5598619095 1.2463077797
H -4.5390386983 -3.6108356997 -0.9349560705
H -2.7803332860 -3.4043869786 -1.0809283069
H -3.5365756886 -3.4839998791 0.5335950032
H 0.6748289025 2.5162484065 0.8116947291
H 2.2516382876 4.6192638479 -2.9441455841
H 3.4741503602 3.5224759190 -2.2153440381
H 2.3473996382 2.9107596123 -3.4322192566
