44
CONF3
C -0.9317980197 1.7395657153 2.8732524555
C -1.1222138906 1.5681515786 1.3725480444
C -2.3250872126 0.6800359099 1.0453395144
O -3.2565285383 0.5116026877 1.7979655141
O -2.2344093626 0.1703784890 -0.1970440971
C -3.3624866773 -0.6440537413 -0.6650764735
C -3.3151145341 -0.5661808908 -2.1771231552
C -3.2125440138 -2.0560041189 -0.1277814857
N 0.0960617297 1.1393555967 0.6720466240
C 0.8763904758 0.0926611697 1.2251027626
C 2.2457036588 0.2733655716 1.4337538767
C 3.0147368529 -0.7515465754 1.9659978190
C 2.4120353941 -1.9455400746 2.3250486131
C 1.0430309376 -2.1281264758 2.1535550746
C 0.2768092749 -1.1125859386 1.5972793136
Cl 0.3015572119 -3.6322390559 2.6186346811
F 3.1574932083 -2.9266519183 2.8558444636
C 0.4537395308 1.8351413487 -0.4758514505
O -0.0703469004 2.9001232548 -0.7748458892
C 1.4708759527 1.2136129550 -1.3778223974
C 2.4197584653 2.0465239882 -1.9729920735
C 3.3395886009 1.5225484847 -2.8725236150
C 3.2939965076 0.1719288587 -3.2098786170
C 2.3242083698 -0.6533343239 -2.6462321889
C 1.4203431547 -0.1383559988 -1.7249973790
H -0.7180033961 0.7900261337 3.3700433678
H -0.1062971685 2.4308550085 3.0612002065
H -1.8459057389 2.1468420381 3.3073740882
H -1.3644926097 2.5429161906 0.9271328221
H -4.2780314023 -0.1869889890 -0.2752692387
H -2.3784868168 -0.9878791904 -2.5548627684
H -3.3908776913 0.4699260890 -2.5159289515
H -4.1474994805 -1.1350702980 -2.6012750835
H -3.2404062445 -2.0648806900 0.9647498718
H -2.2707606406 -2.4971564377 -0.4711744206
H -4.0344386286 -2.6792337007 -0.4928576792
H 2.7078440828 1.2168643090 1.1677776131
H 4.0803451059 -0.6331764251 2.1266366321
H -0.7816865965 -1.2795527548 1.4425598392
H 2.4198666258 3.1027290600 -1.7248177129
H 4.0867801997 2.1697503928 -3.3203555803
H 4.0072564099 -0.2352169471 -3.9192902247
H 2.2735841598 -1.7013374424 -2.9233224070
H 0.6654107491 -0.7797921550 -1.2825203037
