39
CONF23
C -1.8037335364 -3.2868085049 2.0461989928
O -2.5914010274 -2.5089728192 1.1338570044
C -2.1202654072 -1.2774244270 0.7949058083
C -0.9393222487 -0.7160702757 1.2906876437
C -0.5513521512 0.5573768350 0.8762018576
C -1.3315353880 1.2780052002 -0.0280023913
C -2.5109986309 0.7182656181 -0.5267238126
C -2.9143715669 -0.5594713253 -0.1107266598
O -4.1012327414 -1.0896333531 -0.5615666718
C -3.9428208343 -1.8725820997 -1.7634765932
O -3.3430700126 1.3321087899 -1.4120488163
C -2.9603376563 2.6325121276 -1.8810192188
C 0.7487208679 1.1423408131 1.3672104139
C 1.9241694805 0.8710506078 0.4553946127
C 1.8563786537 0.1115543310 -0.6947994734
N 2.8936213581 -0.1269375454 -1.5182821150
C 4.0552417047 0.4390865662 -1.1475626920
N 4.2607271639 1.1979101049 -0.0579433766
C 3.2043801087 1.4123272399 0.7407992589
N 3.4014878086 2.2153514218 1.8205014986
N 5.1524663090 0.1784685559 -1.9290576659
H -1.7080539169 -2.7804339652 3.0134978337
H -2.3451209491 -4.2243813275 2.1746797182
H -0.8086626768 -3.4883525370 1.6330576595
H -0.3150394083 -1.2588493775 1.9902683438
H -1.0065991255 2.2633538173 -0.3403526678
H -4.9363741902 -2.2391618527 -2.0288153614
H -3.5473877557 -1.2520127492 -2.5760655735
H -3.2708999268 -2.7199504550 -1.5838224498
H -1.9962971466 2.5943323157 -2.4012084714
H -3.7424925066 2.9342794010 -2.5780829458
H -2.9072613492 3.3492229263 -1.0534932199
H 0.9652253679 0.7440543174 2.3685047534
H 0.6318075677 2.2287451086 1.4832839466
H 0.9067253217 -0.3365223354 -0.9834780944
H 4.3550409606 2.4219262853 2.0754888087
H 2.7310337400 2.2087497283 2.5715334211
H 5.9330194646 0.8090573928 -1.8307893439
H 4.9633552310 -0.1367696446 -2.8678916442
