48
CONF19
C -0.6565931647 1.6682041473 -1.2519861552
C -0.8040190923 0.1615528730 -1.3916757451
N -1.3930861015 -0.4214385190 -0.1892954480
C -0.6480766965 -0.0308067791 1.0174652639
C -0.4977191634 1.4781018645 1.1105767684
N 0.1550916664 2.0030219748 -0.0853981951
C 0.3871186235 3.4485874646 -0.0026983981
C 1.5584233386 3.8340159333 0.9019773654
C 2.9328808975 3.4508015341 0.3467832229
N 3.1167134413 2.0187614845 0.2260301765
C 2.9107911749 1.3221904759 -0.9413947798
O 2.7610825926 1.7105598452 -2.0891654714
N 2.9299772031 -0.0125041436 -0.4847585757
C 2.7436351545 -1.1548392457 -1.2138775377
C 2.6965902750 -2.3414790107 -0.5552194967
C 2.8453535919 -2.3737283310 0.8669010004
C 3.0264125264 -1.2298782495 1.5910215456
C 3.0511395949 0.0097913080 0.9064465537
N 3.1559286591 1.2384514245 1.3607860268
C -1.7744316871 -1.7695342954 -0.2625698697
C -2.4360219969 -2.3612423367 0.8301336963
C -2.8426688801 -3.6808951774 0.7571892120
C -2.6358613903 -4.4674714575 -0.3711182515
C -1.9925557095 -3.8760567862 -1.4502841251
C -1.5580074308 -2.5554349231 -1.4071728097
Cl -3.6732544183 -4.3818411346 2.1410484459
H -1.6635986171 2.1308676925 -1.1959259942
H -1.4621493176 -0.0427468254 -2.2426715984
H 0.1883261020 -0.2742542621 -1.6105268773
H -1.1736531800 -0.3823281512 1.9072605241
H 0.3514682419 -0.5000784625 1.0135675026
H 0.1155895660 1.7002953046 1.9903675181
H -1.4964533537 1.9391034341 1.2598883581
H -0.5266385089 3.9778186694 0.3360266115
H 0.6022837493 3.8061752874 -1.0179192112
H 1.4442885352 3.4081052164 1.9045095503
H 1.5485073951 4.9238563808 1.0251944437
H 3.7238449684 3.8409310155 0.9966485929
H 3.0730504068 3.8610755996 -0.6590003190
H 2.6510936787 -1.0178761927 -2.2853322681
H 2.5456966079 -3.2570724202 -1.1120737439
H 2.8055137113 -3.3302435134 1.3761278117
H 3.1337548157 -1.2322419582 2.6689221537
H -2.6657785034 -1.7861053458 1.7174766500
H -1.8121293864 -4.4627202842 -2.3457182583
H -1.0381945250 -2.1503228825 -2.2649921848
H -2.9683444161 -5.4973171953 -0.3989210331
H -0.1518229035 2.0455839575 -2.1484348048
