47
CONF26
C 2.7886959506 -3.1092302033 -2.7619130046
C 3.3099706261 -1.8755829635 -2.1430495101
C 2.7725655316 -0.9286668341 -1.3071147700
C 3.8393524803 -0.0011686652 -1.1016324926
N 4.9269838501 -0.3609636649 -1.7437415868
O 4.5833095479 -1.5423463457 -2.4210824141
C 3.8575601813 1.1998502288 -0.2506883427
C 3.6765974053 1.0699040243 1.1280859849
C 3.6681078829 2.1379044222 2.0028817507
C 3.8467160656 3.4132905852 1.4763628081
C 4.0223556921 3.6059434484 0.1101107069
C 4.0230651480 2.5035605790 -0.7361121515
Cl 4.1903623337 2.7716380116 -2.4580908285
F 3.5028660696 -0.1764483155 1.6189208658
C 1.4073055711 -0.9601101175 -0.7574840413
O 0.7878011932 -2.0175951025 -0.6142915242
N 0.8720560157 0.2406667135 -0.4054067058
C -0.4125141818 0.3374180313 0.2108659849
C -1.7202413755 -0.1057682288 -0.5360112601
N -1.9844993865 -1.0283523253 0.5738264541
C -0.8315346738 -0.7048903979 1.2756631063
O -0.4010663041 -1.0793619243 2.3415558805
C -3.3415144114 -1.1462570150 1.0514515305
C -3.9684964552 0.2931343055 0.9355036389
S -3.1794960375 1.0142952385 -0.6108039808
C -3.5725920177 1.1080643900 2.1664399181
C -5.4828026280 0.2968060195 0.7560735623
C -4.0962300131 -2.1813140297 0.2310758719
O -3.8728775503 -2.4298616345 -0.9327927085
O -5.0539440588 -2.7740412563 0.9616417354
H 3.2602964773 -3.2727051866 -3.7336227265
H 3.0082261891 -3.9704261792 -2.1206855654
H 1.7064065991 -3.0400587924 -2.8745769936
H 3.5272602319 1.9674510139 3.0639032356
H 3.8449528349 4.2718514954 2.1390467199
H 4.1498907779 4.6014921516 -0.2974622545
H 1.3597290606 1.0960036457 -0.6278367633
H -0.5344036779 1.3418148162 0.6266613930
H -1.5608357038 -0.5819556712 -1.5057657391
H -3.3381176227 -1.4506777730 2.1027575706
H -2.4920950098 1.1025697566 2.3335988545
H -4.0635126344 0.6908741454 3.0532837150
H -3.8927187915 2.1460860223 2.0456449269
H -5.7945057982 -0.2599162578 -0.1315839325
H -5.9569590794 -0.1445701080 1.6385011627
H -5.8403280035 1.3258091612 0.6602676548
H -5.5411488358 -3.3941596955 0.3904234659
