47
CONF105
C -3.0773305758 -0.1492229307 -1.2277651535
C -2.5087050287 -0.1830929559 -2.6263553488
C -2.4633235481 -1.5701734345 -3.2295450109
C -2.7491732865 0.9540919911 -3.5877722027
C -3.5425009946 2.1278718428 -3.2209453745
C -4.2779281873 2.8522986678 -4.0641718094
Br -5.3062924062 4.3399905404 -3.4624519642
Br -4.4095846619 2.5179428800 -5.9347019060
C -1.3374714978 0.7220362269 -3.0119851485
C -0.7413084961 1.6495484927 -2.0430817944
O -1.3035633865 2.4043748997 -1.2785988014
O 0.6263728019 1.5428712285 -2.0951630293
C 1.3247088744 2.3362934561 -1.1043540009
C 2.7018400082 2.4352246590 -1.5891100858
N 3.8013586263 2.5250988043 -1.9299067991
C 1.2749977026 1.6993728513 0.2697994965
C 0.9265143355 2.4675201308 1.3772537748
C 0.8812755589 1.8685787842 2.6336847685
C 1.1752612615 0.5188663567 2.7901409016
C 1.5293309484 -0.2330575914 1.6690580296
O 1.7734136412 -1.5878675518 1.7305046903
C 2.3351137419 -2.1178073946 2.8852939490
C 3.4771625873 -1.5592347879 3.4536186569
C 4.0421778048 -2.1717837247 4.5679786007
C 3.4795916586 -3.3313860973 5.1002485835
C 2.3434630940 -3.8810762479 4.5109929725
C 1.7614732759 -3.2741673813 3.4002592376
C 1.5861124976 0.3485622630 0.4073052599
H -3.0577818180 0.8406210525 -0.7729097246
H -2.5068192468 -0.8288183863 -0.5858772514
H -4.1143723038 -0.5001330048 -1.2539609479
H -1.8417404334 -2.2296804888 -2.6145790557
H -2.0565753340 -1.5544126539 -4.2441648576
H -3.4742836893 -1.9900302306 -3.2676384620
H -2.8120225456 0.6680368931 -4.6330089792
H -3.5488322261 2.4423353741 -2.1834600697
H -0.6249358728 0.2905707453 -3.7061524392
H 0.8976429674 3.3450585587 -1.0653562893
H 0.6808368125 3.5175063681 1.2571162644
H 0.5974533049 2.4552630576 3.5012512958
H 1.1248440839 0.0523035222 3.7676899284
H 3.9143875440 -0.6618274385 3.0279301677
H 4.9331941194 -1.7433612681 5.0161133084
H 3.9273187010 -3.8050761091 5.9675596399
H 1.9004358509 -4.7845166430 4.9180758016
H 0.8742720800 -3.6857616888 2.9305940792
H 1.8639913546 -0.2569523401 -0.4494537955
