49
CONF41
C -1.5370002591 -0.9301287100 -1.4573908131
C -2.6934138877 -0.8209515888 -0.4864985299
C -2.4305374205 -0.3642434804 0.9701086421
C -2.8427496230 -1.8098189566 0.6318461551
C -4.2257049114 -2.2117861791 1.1097719133
C -1.8513299587 -2.9435689393 0.7909702439
C -1.0932196651 0.0026836700 1.4293758557
O -0.0298270355 -0.5347038910 1.1958640059
O -1.1701212509 1.1274460143 2.2263479774
C 0.0903415205 1.7166897479 2.6376167383
C 0.9215142575 0.7651737429 3.3811611308
N 1.5805138051 0.0788575344 4.0360850035
C 0.8087987084 2.3891919995 1.4858167325
C 1.8842021666 1.7894680551 0.8381879149
C 2.4615296987 2.4344742191 -0.2518578344
C 1.9984179398 3.6731032860 -0.6840200215
C 0.9347341916 4.2705605681 -0.0147169962
C 0.3335080236 3.6338487377 1.0656022989
O 3.5542654530 1.9043616788 -0.9087605935
C 3.5898979123 0.5387723886 -1.1502756586
C 4.8328918997 -0.0803579675 -1.0701118108
C 4.9360655919 -1.4353711387 -1.3729561099
C 3.8080667648 -2.1645701780 -1.7432090184
C 2.5708742233 -1.5271875431 -1.8203361109
C 2.4530344433 -0.1710038206 -1.5311875067
C -3.9185811941 -0.2138361715 -1.1416775014
H -0.6161004058 -1.2855943100 -0.9989947827
H -1.3344972412 0.0498151119 -1.9039975674
H -1.8107579997 -1.6164921295 -2.2669960746
H -3.2165769709 0.2514578278 1.3946553136
H -4.9313078175 -1.3804607606 1.1283402468
H -4.6318455078 -2.9941487606 0.4581853213
H -4.1604189575 -2.6195400446 2.1240913187
H -2.1955663195 -3.7997129841 0.1993276365
H -1.8114382846 -3.2577990892 1.8396556690
H -0.8411808857 -2.6884744413 0.4790413227
H -0.2200134728 2.4801993518 3.3587388394
H 2.2594431418 0.8255705934 1.1616753654
H 2.4725441365 4.1534890600 -1.5332479412
H 0.5712968780 5.2388572320 -0.3427967532
H -0.5011209322 4.0979116026 1.5817723444
H 5.7001373067 0.5004768851 -0.7740391325
H 5.9041245050 -1.9224820310 -1.3106576571
H 3.8920403888 -3.2218181426 -1.9717202446
H 1.6871628989 -2.0846548745 -2.1156250898
H 1.4915825166 0.3272853081 -1.5957785153
H -4.7307260535 -0.0251387575 -0.4390103513
H -3.6523666571 0.7381908883 -1.6131018619
H -4.2905846714 -0.8840396078 -1.9256040030
