59
CONF383
C 6.7852689702 1.5532363347 3.1167394466
C 6.1379042497 2.5645458348 4.1060730085
C 4.6812944153 2.0943441651 4.2809920234
C 4.3554532054 1.3305315466 2.9885075929
C 5.6671346900 0.5567205949 2.7478975695
C 4.0650419120 2.2956331900 1.8372652058
C 3.6858168789 1.6078367405 0.5527036749
O 3.8908522628 2.1148977777 -0.5420082609
N 3.0619622719 0.3602568964 0.6457504906
C 2.7208823574 -0.2537989917 1.8543917679
O 2.0961990237 -1.3060475452 1.8579391803
C 3.1330302922 0.4345240468 3.1287555323
C 2.6660759449 -0.3104382275 -0.6068005906
C 1.2770693179 0.1174922676 -1.0711945779
C 0.8704138473 -0.6378117071 -2.3341860837
C -0.4449520662 -0.1508842540 -2.9378420109
N -1.5709161722 -0.1418979517 -1.9942587173
C -1.9061201159 -1.4949169310 -1.5354123482
C -3.0831672822 -1.4564559202 -0.5644336234
N -4.2415490421 -0.8230651859 -1.1946249866
C -3.9217507682 0.5250041471 -1.6653319031
C -2.7427972343 0.4715895664 -2.6314972938
C -5.2485911837 -1.5593034309 -1.7527269022
N -5.3042314352 -2.8792029765 -1.4462720637
C -6.3295766482 -3.5624094967 -1.9514051626
C -7.3050475917 -2.9881925299 -2.7584454059
C -7.1483690450 -1.6318981597 -3.0200345218
N -6.1408791393 -0.9065560047 -2.5382502775
H 7.6432755181 1.0380817438 3.5568289658
H 7.1492005921 2.0716261206 2.2243304009
H 6.6636851487 2.5992417987 5.0639555952
H 6.1656379891 3.5762857234 3.6898391034
H 3.9794195932 2.9139478791 4.4672714510
H 4.6076007345 1.3928832183 5.1213920810
H 5.7601533381 0.1729746847 1.7259083398
H 5.6880424186 -0.3050269974 3.4259590171
H 3.2227414323 2.9487824308 2.1084436554
H 4.9131484294 2.9459471087 1.6076273151
H 3.2839936040 -0.3466858713 3.8798517602
H 2.2694255254 1.0333646813 3.4548545803
H 2.6919386489 -1.3863029709 -0.4211538388
H 3.4167805778 -0.0636382962 -1.3605541067
H 0.5533396616 -0.0703728535 -0.2707170275
H 1.2729990737 1.1972981371 -1.2655969712
H 0.8280018379 -1.7137258918 -2.1238010543
H 1.6441448023 -0.5102499074 -3.1023382814
H -0.6823197669 -0.7659185766 -3.8290877121
H -0.3106339310 0.8812188174 -3.2878506232
H -2.1581152677 -2.1594803338 -2.3875726779
H -1.0447209174 -1.9284414192 -1.0166036793
H -2.8099388555 -0.8596130674 0.3154403683
H -3.3412855188 -2.4632262302 -0.2398287535
H -3.6556324001 1.1334176471 -0.7914235084
H -3.0490381238 -0.0895110148 -3.5384029726
H -2.4825599596 1.4907332661 -2.9411806483
H -6.3693928349 -4.6221314087 -1.7004511280
H -8.1296810178 -3.5615376421 -3.1626209746
H -7.8626518267 -1.1014571861 -3.6493331077
H -4.7917625914 0.9660983520 -2.1492078117
