47
CONF333
C -3.8491226289 4.5013936153 4.0755358144
C -3.4712204998 3.0927782960 3.6218774490
C -3.4353944492 2.9708592682 2.0973118059
C -3.0649582691 1.5682440651 1.6714104385
O -3.0496342151 1.5418827179 0.2077852256
C -2.7779803380 0.3629785369 -0.3597232679
O -2.5198434605 -0.6577095801 0.2414547955
C -2.8956653993 0.4690413888 -1.8806763303
C -4.3518797996 0.2996020781 -2.2906863838
O -2.1628902276 -0.5816864506 -2.5079492112
C -0.7959312919 -0.5615669361 -2.4212844990
C -0.1462006029 -1.6548140143 -3.0040576555
C 1.2380594608 -1.7337273795 -2.9841923968
C 1.9661502776 -0.7179857617 -2.3777265017
C 1.3386194051 0.3717048604 -1.8014386627
C -0.0533864962 0.4563607450 -1.8190504649
O 3.3680495955 -0.7572028229 -2.4221009397
C 4.0270049273 -1.4091201768 -1.4280006936
C 5.4248871669 -1.4466384018 -1.5380549604
C 6.1243125872 -2.0951231179 -0.5454711229
C 5.4163934960 -2.6782611801 0.5144652209
C 4.0332933095 -2.5841888873 0.5250007245
N 3.3412507310 -1.9551874617 -0.4353357276
C 6.1615500778 -3.3954082068 1.5895427028
F 6.7866725651 -4.5108320327 1.1190158684
F 5.3626683698 -3.7930565167 2.6043368589
F 7.1390379393 -2.6204256010 2.1325174591
H -3.1292274433 5.2376188229 3.7019722132
H -4.8393789932 4.7792984621 3.6988040663
H -3.8704377424 4.5735356489 5.1671386383
H -2.4890828991 2.8228463478 4.0304644719
H -4.1892727846 2.3684165155 4.0270040791
H -4.4170842743 3.2290313221 1.6813406906
H -2.7073217057 3.6804818824 1.6853474545
H -3.7933285367 0.8294415386 2.0213621597
H -2.0703021804 1.2816922805 2.0287552103
H -2.5240004438 1.4479335990 -2.2085093111
H -4.9586716145 1.0875044778 -1.8387583077
H -4.7262577923 -0.6743688222 -1.9633454255
H -4.4335845753 0.3703461925 -3.3778743432
H -0.7396054411 -2.4340269348 -3.4707010280
H 1.7529533109 -2.5773314511 -3.4319727039
H 1.9294135560 1.1532836655 -1.3352909906
H -0.5267094550 1.3185258535 -1.3643893741
H 5.9206504690 -0.9774845899 -2.3794401103
H 7.2075166261 -2.1517737942 -0.5857465801
H 3.4498886996 -3.0240821602 1.3293329467
