47
CONF114
C -6.2919659352 -3.1895333658 0.6346311231
O -6.4394092038 -1.7586221591 0.4988220486
P -5.1548100352 -0.8522091148 0.1795550998
S -3.9227610833 -1.4958787016 -1.1624038207
O -5.8359034686 0.5793112766 -0.0603883891
C -6.2907602849 0.9498354845 -1.3817664439
O -4.5734838656 -0.6511903007 1.6815089935
C -3.3852887525 0.0550507497 1.8925709280
C -2.1826948176 -0.6380836434 1.9403382317
C -1.0112579124 0.0552095203 2.2095448454
C -1.0437251270 1.4389894255 2.4024604362
C -2.2612994471 2.1200023176 2.3450331622
C -3.4407440142 1.4251370006 2.0995733947
S 0.4249184095 2.3742645130 2.8038863943
C 1.6570816622 1.6199049637 1.7527121177
C 1.4182693526 1.3847238556 0.3965799954
C 2.4090716093 0.8371970473 -0.4061392854
C 3.6563126824 0.5579517730 0.1478769196
C 3.9146526058 0.8059923284 1.4889414307
C 2.9076893174 1.3224411205 2.2958605365
O 4.6776888412 -0.0318745407 -0.5838783927
P 5.0272285688 0.3606573000 -2.1402020730
S 5.0325035103 2.2298751722 -2.5704997030
O 4.0194492422 -0.5141360519 -3.0243251552
C 3.8623213031 -1.9328732223 -2.7697056699
O 6.3859939448 -0.4842625624 -2.2867319718
C 7.6003351107 0.0240828027 -1.6914008719
H -5.7265138622 -3.4261758779 1.5415618084
H -5.7869516148 -3.6044981077 -0.2426763142
H -7.3044035044 -3.5866104571 0.7144720133
H -7.1501650755 0.3371941681 -1.6711240500
H -6.5870071205 1.9968127242 -1.3101187492
H -5.4822754111 0.8305412973 -2.1085030826
H -2.1748578458 -1.7085285453 1.7706436138
H -0.0676841193 -0.4770873732 2.2605333275
H -2.2858153630 3.1957917495 2.4836899776
H -4.3948829689 1.9370591911 2.0496381678
H 0.4503754535 1.6215017103 -0.0319668129
H 2.2201351446 0.6500842226 -1.4574946659
H 4.8937985131 0.5755798303 1.8935941224
H 3.0930648290 1.4940378288 3.3508524126
H 4.7873637105 -2.4638478990 -3.0082540897
H 3.5863518103 -2.1066926360 -1.7250608428
H 3.0580725940 -2.2626028697 -3.4278871360
H 8.3943424322 -0.6541359962 -2.0052738648
H 7.8017902295 1.0371447394 -2.0520049913
H 7.5158488449 0.0224695183 -0.6000287127
