24
CONF34
C 2.5623965385 1.0858390367 0.5766221220
C 1.1494988874 0.6219059026 0.9105750986
C 0.4594979416 0.0166332028 -0.3106709141
C -1.0081708723 -0.3284954569 -0.0284064327
C -1.7096491955 -0.8355827509 -1.3187118938
C -3.1674164503 -1.0683338953 -1.0337300607
O -4.0359200138 -0.5163901702 -1.6844471796
O -1.5393621146 0.0759505655 -2.3824961470
O -1.1128915180 -1.3189866854 0.9872090105
O 1.1768416674 -1.1863456330 -0.6249591047
O 0.3604384651 1.7327791398 1.3451957611
O 3.1481667507 1.7575633834 1.7028985375
H 3.1768618429 0.2374062043 0.2548178430
H 2.5220848471 1.8260242761 -0.2305620745
H 1.1998786404 -0.1426084406 1.7043929102
H 0.5037439175 0.7325722443 -1.1405961912
H -1.5259770171 0.5664031825 0.3307876329
H -1.2669781884 -1.8172468095 -1.5695483170
H -3.4062848025 -1.7533359237 -0.2018883423
H -2.4339412756 0.3297474629 -2.6697722795
H -0.4662700343 -2.0077925392 0.7678447754
H 1.1302658025 -1.3321855351 -1.5779036025
H 0.9219170523 2.2362288893 1.9525828705
H 3.3612686050 1.0882500429 2.3664589784
