29
CONF1
C -1.7442907077 -1.5961047655 -0.6070005683
C -3.2491642706 -1.7880930826 -0.7554205314
C -3.9225522750 -0.6322350673 -1.4420165106
O -4.9624681307 -0.7231889724 -2.0725499754
N -3.3034704832 0.6086746318 -1.3026496338
C -2.1518991282 0.9134566893 -0.6011342406
O -1.7441228997 2.0580369596 -0.5237433480
C -1.4744134151 -0.2658670680 0.0964644032
N -0.0665435397 0.0115091042 0.2661604912
C 0.5760323793 0.0738359665 1.5125305812
O 0.0365015799 -0.1209715083 2.5834474853
C 1.9885983494 0.4171747871 1.2171995905
C 3.0601568757 0.5906801493 2.0739696714
C 4.2924351402 0.9176298904 1.4989341637
C 4.4296924986 1.0614320863 0.1167647469
C 3.3397651821 0.8838598768 -0.7415485164
C 2.1255553113 0.5610243576 -0.1637082413
C 0.8040947827 0.3140888711 -0.7899968185
O 0.4839452464 0.3519959017 -1.9623818969
H -1.3165978148 -2.4073180866 -0.0128860464
H -1.2611538025 -1.5990588576 -1.5886671125
H -3.7197397351 -1.8808782449 0.2339420035
H -3.4913940497 -2.6938825379 -1.3148360088
H -3.7742681564 1.3943435459 -1.7419073506
H -1.9066659697 -0.3017608269 1.1080705495
H 2.9503927586 0.4780898912 3.1473248413
H 5.1581591042 1.0624979618 2.1365820266
H 5.3998892784 1.3156550275 -0.2970198174
H 3.4435259865 0.9953728011 -1.8156240657
