37
CONF3
C -3.3583946560 2.0471561490 -1.3095118804
C -3.3918859015 0.6098429084 -0.7903873753
C -4.3614792284 0.4863111006 0.3933836667
C -4.4205629707 -0.9289919565 0.9665816024
C -3.0273720262 -1.4017707726 1.3808203537
C -2.0619068274 -1.3127315630 0.1995183686
C -1.9985538408 0.1126292593 -0.3684040337
N -1.0864993069 0.1962888781 -1.5144706659
C 0.2820221568 0.1172561433 -1.5095758626
O 0.9181846743 -0.0729020739 -2.5523703855
N 0.8795375470 0.3071426648 -0.2777591122
C 2.2433373139 0.2913373550 0.0454689632
C 3.2794459436 0.1787741236 -0.8921082607
C 4.6024665766 0.1770014345 -0.4560332343
C 4.9230777359 0.2884350260 0.8936866938
C 3.8905471461 0.4045391776 1.8233548607
C 2.5665014155 0.4052532509 1.4079135886
H -4.3681571993 2.3790826143 -1.5717735001
H -2.9714915309 2.7216698898 -0.5362813907
H -2.7260800566 2.1505707381 -2.1952679477
H -3.7471870370 -0.0552264508 -1.5939461029
H -5.3576438981 0.8107694697 0.0700498176
H -4.0415809377 1.1857366005 1.1799785914
H -5.1070840043 -0.9608114373 1.8204352339
H -4.8218486691 -1.6126504855 0.2057147176
H -3.0625721548 -2.4301160642 1.7575488944
H -2.6570269316 -0.7726414322 2.2024456852
H -1.0569140620 -1.6377745591 0.4940343682
H -2.3955012190 -1.9845220218 -0.6033921294
H -1.6482191829 0.8045663793 0.4140001352
H -1.4775684901 -0.0773293259 -2.4056932217
H 3.0475734687 0.0932121342 -1.9431322446
H 5.3935556772 0.0882959348 -1.1948168919
H 5.9585333924 0.2863820591 1.2175560848
H 4.1141040505 0.4940798836 2.8820612220
H 1.7687025344 0.4948352739 2.1407483648
H 0.2679771967 0.4384291516 0.5134955516
