53
CONF112
C 0.0947947447 4.5345659907 -1.5263560724
C 0.1636332486 4.3345617121 -0.0259239977
O -0.1598801657 2.9609898097 0.3169490989
C 0.8440820816 2.0534660987 0.2526380555
O 2.0080879816 2.3653804547 0.0202506772
C 0.3494994602 0.7050042601 0.4926197370
C 1.2224331955 -0.3413836084 0.5220404123
N 0.7657140204 -1.6039896603 0.7833035633
C -0.5100446262 -1.8908887924 1.2067214896
C -1.4508360015 -0.9015256242 1.2020200245
C -1.1535934401 0.4714719388 0.6039604250
C -1.8036697016 0.6152772331 -0.7733545376
C -1.4053964381 -0.2682351583 -1.7851421836
C -1.9247266836 -0.2073093800 -3.0709975088
C -2.8754688022 0.7616111528 -3.3832759454
C -3.2960152039 1.6541172237 -2.4050063886
C -2.7610892903 1.5719732413 -1.1206310464
Cl -3.3633792949 2.7501988113 0.0492641424
C -2.7886721134 -1.1659750670 1.7208043975
O -3.1993615562 -2.2111860087 2.2113709778
O -3.5823536063 -0.0705653764 1.6024832516
C -4.9319203352 -0.2188841750 2.0881395788
C -0.6996812591 -3.3083863404 1.6521377308
C 2.7147791126 -0.2515379038 0.3020710135
O 3.2748852544 -1.5524650301 0.4053057003
C 4.6963902064 -1.5470294242 0.2306841123
C 5.1978908456 -2.9690716685 0.4160433457
N 4.9735087168 -3.5443605442 1.7502357262
H -0.8959962420 4.2635089477 -1.9036128022
H 0.8470296155 3.9267473677 -2.0366415197
H 0.2804864808 5.5867250983 -1.7638306325
H -0.5965629703 4.9261658276 0.4894269535
H 1.1500647865 4.5839499439 0.3736732039
H 1.4629315749 -2.3366469549 0.8060031056
H -1.5783953459 1.2356350465 1.2552832174
H -0.6621356113 -1.0231071336 -1.5443763394
H -1.5888720736 -0.9107148283 -3.8259155498
H -3.2926528821 0.8273881483 -4.3828930339
H -4.0357936635 2.4137112910 -2.6323674625
H -5.4083010798 0.7458615329 1.9140500269
H -5.4525112300 -1.0066860292 1.5371289488
H -4.9317812303 -0.4582194747 3.1548809618
H -1.5586198210 -3.7612290052 1.1545240027
H 0.1949203672 -3.8973445743 1.4360301714
H -0.8976963236 -3.3508886174 2.7264237140
H 2.9164076131 0.1816897958 -0.6878608137
H 3.1583059435 0.4246787166 1.0467614871
H 4.9454433836 -1.1768810698 -0.7764837674
H 5.1554898130 -0.8742314261 0.9727889075
H 4.7157532963 -3.6142702917 -0.3291185835
H 6.2728324694 -2.9765164535 0.1990197683
H 3.9802177805 -3.5037541499 1.9591479447
H 5.4198248987 -2.9513942905 2.4447904111
