26
CONF3
C 2.6124916796 -1.0090017035 0.6691983319
C 1.4771823112 -0.1027409030 0.3159077237
C 1.3023593226 1.1288153891 0.8117232544
C 0.0854589399 1.9293677596 0.4182110573
C -0.7627602046 1.1513615738 -0.5964052630
C 0.1808275060 0.5614392450 -1.6785201345
C 0.4373913198 -0.5960467120 -0.6679039950
C -1.0098989541 -0.3181231204 -0.1080404170
C -2.0864704889 -1.0247614685 -0.9334375345
C -1.2949467855 -0.5623410608 1.3666743334
H 3.1712481528 -1.3045979394 -0.2283603469
H 2.2363334201 -1.9376718957 1.1189422897
H 3.3038668340 -0.5364276321 1.3727948010
H 2.0094270673 1.5588083599 1.5191538482
H 0.3854877746 2.8954448654 -0.0132963535
H -0.5108363582 2.1727708749 1.3104138185
H -1.6382846658 1.7255135564 -0.9212575604
H 1.0530864346 1.1593955669 -1.9589060727
H -0.3509618232 0.2407604458 -2.5747376700
H 0.6550273394 -1.5996155053 -1.0487157759
H -2.0805143689 -2.0994453429 -0.7173777827
H -1.9561812699 -0.8985807291 -2.0105058683
H -3.0765703201 -0.6355319388 -0.6677794229
H -1.3250573723 -1.6391943841 1.5723938629
H -0.5432027677 -0.1132845665 2.0184661955
H -2.2745022305 -0.1463129200 1.6313645961
