39
CONF3
C 4.0933422566 1.8100579583 -0.2633355441
C 2.9721887382 1.1322751306 -1.0493255935
C 2.0576480720 0.2615126868 -0.1805642482
C 2.7762063990 -0.9592710231 0.4133521972
C 1.8819934408 -1.8065077561 1.3148548879
N 0.9248042641 -0.2100082522 -1.0005309277
C -0.3833131928 -0.2680386755 -0.6666058020
C -1.2487740794 -1.3289890814 -1.0870081011
C -2.5797625882 -1.3967788757 -0.6635487383
C -3.1495726509 -0.4475894812 0.1563144342
C -2.3606994659 0.6575433499 0.5620038435
C -1.0341548158 0.7085830020 0.1434108141
N -0.2982011560 1.9412842911 0.4634760095
O 0.1190546509 2.6113496014 -0.4753060181
O -0.1803373834 2.2524301469 1.6446168835
C -2.9970795632 1.7464393328 1.3735193159
C -4.5864934803 -0.5767588101 0.5766069275
N -0.7854494767 -2.4183832325 -1.9005865166
O -1.5025023289 -3.4146699215 -2.0320853905
O 0.3267334954 -2.3341770162 -2.4596186159
H 4.6370615202 2.5091932012 -0.9051654545
H 3.6870156016 2.3762736731 0.5825162569
H 4.8166144455 1.0891342913 0.1275711025
H 3.3916061302 0.5065962726 -1.8482881951
H 2.3535665491 1.8948497074 -1.5331702905
H 1.6855670911 0.8517997380 0.6596014703
H 3.6325567437 -0.5923253551 0.9891417884
H 3.1811736055 -1.5655182501 -0.4081720665
H 1.0668665621 -2.2733296379 0.7526318534
H 1.4381421472 -1.1955450373 2.1091820516
H 2.4583354211 -2.6073102843 1.7872671425
H 1.1847390772 -0.9383683163 -1.6586062818
H -3.1727975350 -2.2362561776 -1.0040451154
H -2.9587029653 1.4886167305 2.4387487204
H -4.0480178076 1.8493231223 1.1000077951
H -2.5140294158 2.7152955210 1.2507321394
H -4.6935116791 -0.4853620972 1.6621164754
H -4.9810209639 -1.5477822642 0.2713554404
H -5.2107958642 0.2004115977 0.1211969505
