22
CONF2
C 4.1174360158 1.2220119407 -0.2919348757
C 3.2364684441 1.9075700424 0.5378796815
C 1.9046191297 1.5177004890 0.5967324591
C 1.4195972988 0.4461044250 -0.1555910226
C 2.3084376547 -0.2338587127 -0.9936210494
C 3.6370726670 0.1605666524 -1.0475201912
Br 4.8379730340 -0.7859299709 -2.1983704759
C -0.0002776506 0.0217773088 -0.1149263090
C -0.8754181721 0.4764585277 -1.1011116351
C -2.2132759553 0.0988830529 -1.1038720055
C -2.6947099551 -0.7525531042 -0.1096609843
C -1.8366979632 -1.2265275872 0.8783756113
C -0.5052744139 -0.8372913352 0.8627887244
Br 0.6463059556 -1.5171136072 2.2248396707
Br -4.5107414984 -1.3101484493 -0.0462087961
Br -3.3313596907 0.7750345831 -2.4849473304
Br 0.7174429968 2.4923600668 1.7366425532
H 5.1575840188 1.5213414887 -0.3429804993
H 1.9474350406 -1.0667908228 -1.5860774707
H -0.5015879388 1.1418249480 -1.8711285378
H -2.2085430109 -1.8933303135 1.6460471747
H 3.5923919765 2.7427164856 1.1297136479
