44
CONF24
C -4.9273321271 -0.3922777575 2.2050810585
C -3.5585041882 -0.4356837836 1.5725592409
C -3.0043913865 -1.8472644517 1.3093403352
O -2.4620877080 -1.7844428500 -0.0284483891
C -2.5207451054 -0.4228779047 -0.4406927763
O -3.6266034667 0.1260543423 0.2388520655
C -2.8390772321 -0.4020670196 -1.9436755230
N -1.7223707028 -0.9011573109 -2.7251729816
C -1.3654368793 -2.1799060395 -2.9598431253
N -0.2199122212 -2.2208083418 -3.6300617333
C 0.0903529456 -0.9009783458 -3.7737468112
N -0.7875374816 -0.0620433497 -3.2395898037
C -1.2050628347 0.2873248316 -0.1058578590
C -0.0867099281 -0.4753232331 0.2427320217
C 1.1519412523 0.0915122110 0.5064761161
C 1.2878970092 1.4728435056 0.4132573407
C 0.2030674681 2.2728992829 0.0716048078
C -1.0219635433 1.6718167292 -0.1836795119
Cl -2.3280634440 2.7559023890 -0.6570711477
O 2.4612581083 2.1312517132 0.7077401353
C 3.6654094928 1.5158451036 0.4038886296
C 4.6735286618 1.5871682500 1.3576796663
C 5.9275607817 1.0563003145 1.0719249194
C 6.1398587684 0.4575103996 -0.1635977582
C 5.1358103955 0.3854677861 -1.1232384680
C 3.8870075070 0.9250209188 -0.8374626542
Cl 7.7221049990 -0.2258354793 -0.5261354680
H -4.8825595454 -0.8398104050 3.2025569952
H -5.6445788736 -0.9550489750 1.5999257028
H -5.2721677958 0.6400727345 2.3078303720
H -2.8381097504 0.1508866834 2.1600731638
H -2.2204261785 -2.1203034609 2.0241571475
H -3.7948445894 -2.6048811458 1.3158010686
H -3.7108048969 -1.0382968255 -2.1151615830
H -3.0561141103 0.6161356972 -2.2684173687
H -1.9630284233 -3.0227823934 -2.6390885627
H 0.9753956439 -0.5473639963 -4.2878312997
H -0.2016216518 -1.5509799863 0.3072982850
H 1.9951550490 -0.5322109822 0.7804029249
H 0.3258440303 3.3470930529 -0.0007479694
H 4.4769048476 2.0568779497 2.3152987307
H 6.7225922744 1.1044765676 1.8071211655
H 5.3234876569 -0.0764175860 -2.0857997555
H 3.0948761408 0.8863013671 -1.5778037136
