31
CONF40
C -4.8650832544 -0.3860290595 -0.3973805627
C -4.7926208999 -0.1530037032 0.9847513416
C -3.5804385948 -0.2065378629 1.6455797947
C -2.4139117939 -0.4964458413 0.9223166069
C -2.4893467329 -0.7291581199 -0.4622225650
C -3.7215410736 -0.6728167905 -1.1207424703
C -1.2579887668 -1.0155586394 -1.1782470264
N -0.1368472990 -1.0217153433 -0.3263863173
N -0.1326429554 -0.7950924803 1.0235992656
N -1.2145509816 -0.5449246679 1.6249847282
C 1.1686826876 -1.2389096430 -0.9177714900
S 1.7417851113 0.2186733457 -1.9267941428
P 3.0531433174 1.1569355518 -0.5551310023
S 3.7603455387 2.7666353252 -1.3534252491
O 2.2674136660 1.2468131841 0.8451033919
C 1.2102250000 2.2206866816 0.9875347720
O 4.0845864744 0.0144108680 -0.0645819282
C 5.1501830353 -0.3730950898 -0.9600202255
O -1.1380520189 -1.2338246557 -2.3727543406
H -5.8254449768 -0.3399272345 -0.8997742325
H -5.6985837945 0.0704123300 1.5385038323
H -3.4994630974 -0.0325602592 2.7129174124
H -3.7500160175 -0.8543530668 -2.1894392499
H 1.8804852800 -1.4363973383 -0.1147484617
H 1.1090752646 -2.0777416436 -1.6140351847
H 1.6237696503 3.2319906655 0.9389154334
H 0.7658627022 2.0289770579 1.9641353834
H 0.4557540236 2.0894940075 0.2035126719
H 4.7402001665 -0.7984265060 -1.8825754036
H 5.7798295406 0.4895912577 -1.1952898987
H 5.7251915025 -1.1281026528 -0.4230349752
