55
CONF29
C -7.1219903990 -0.1769560776 0.7935829235
C -6.5105633846 -1.4885807647 0.3501290165
O -5.5110654805 -1.2754560009 -0.6907194609
C -4.2790766385 -0.9109120059 -0.2658200615
O -3.9427725363 -0.8147063463 0.9025866683
N -3.4818140556 -0.6816639815 -1.3567502355
C -2.1243568525 -0.3402421195 -1.3581164092
C -1.4684627366 0.1789557496 -0.2386248465
C -0.1066290565 0.4575499063 -0.3114074052
C 0.5833537341 0.3475113551 -1.5209570093
C -0.0867100501 -0.1275059554 -2.6480437913
C -1.4183644378 -0.4984916666 -2.5603957615
S 2.2927422077 0.8315807892 -1.6072034180
C 2.2222263638 2.1948531282 -0.4623266218
C 3.0031010477 3.3336555447 -0.6627257926
C 2.9292494618 4.3830644609 0.2468524180
C 2.0555879247 4.3142721586 1.3319348901
C 1.2670360458 3.1850812585 1.5239573419
C 1.3697825663 2.1136320239 0.6411566866
N 0.6074032180 0.9174830114 0.8363470602
C 0.8488014777 0.1541138916 1.9725929283
O 1.6200269559 0.5553701565 2.8392646606
C 0.1654360943 -1.1883935559 2.1246327596
C 1.2068070269 -2.3115032251 2.1083088410
N 1.8700574410 -2.4376815710 0.8060983336
C 0.9801251892 -3.0438080695 -0.1962177241
C 1.7071173662 -3.2042381626 -1.5202362307
O 2.8802432289 -4.0127078705 -1.3796026182
C 3.7566807265 -3.4180999118 -0.4150384560
C 3.0719441056 -3.2751300688 0.9324139083
H -6.3737543179 0.4675399063 1.2622370766
H -7.9106583810 -0.3783145837 1.5253871252
H -7.5664415003 0.3493667121 -0.0559033550
H -7.2502364626 -2.1337113347 -0.1281446555
H -6.0465535440 -2.0257132586 1.1812001454
H 1.9730115625 -2.0903447732 2.8594536958
H 0.4378349717 -0.2174112617 -3.5936968831
H -1.9266408827 -0.8902090312 -3.4360853838
H 3.6568290129 3.3960135808 -1.5268157821
H 3.5408263119 5.2663107836 0.0942189861
H 1.9850625492 5.1429322163 2.0286209263
H 0.5840076123 3.1167627674 2.3631768622
H -0.3148710256 -1.1797554253 3.1089384684
H -0.6116284662 -1.3697599652 1.3852566404
H 0.7145879816 -3.2567182477 2.4048314581
H 0.6177887502 -4.0341304748 0.1443923594
H 0.1057639950 -2.4029318304 -0.3580376708
H 1.0621627394 -3.7058723373 -2.2475477316
H 1.9893309700 -2.2151736502 -1.9153302789
H 4.6271018916 -4.0750864643 -0.3322823134
H 4.0845259286 -2.4289286208 -0.7754001139
H 3.7645152222 -2.8034420051 1.6399240898
H 2.8208979084 -4.2823738231 1.3201855778
H -1.9979009325 0.3397671650 0.6895417466
H -3.8968560251 -0.8859826837 -2.2552255694
