55
CONF163
C -6.3012782056 -1.2521459893 1.1470714746
C -5.4892532672 -2.3331538171 0.4670821431
O -4.6902793053 -1.7809755499 -0.6216715775
C -3.5140465271 -1.2162152660 -0.2659715133
O -3.0672830888 -1.1876210075 0.8690021622
N -2.9094644311 -0.6954843430 -1.3813724860
C -1.6314189576 -0.1223892802 -1.4355784713
C -1.0512263639 0.5077410080 -0.3325173692
C 0.2474717850 0.9947861905 -0.4285320964
C 0.9216862580 0.9914420212 -1.6533998242
C 0.3110556478 0.4229632805 -2.7699715073
C -0.9408488646 -0.1618615505 -2.6538857929
S 2.5435343388 1.7130693112 -1.7573372246
C 2.2992605742 3.0485375091 -0.6020047170
C 2.9109445795 4.2853616416 -0.8070645507
C 2.7109991548 5.3092885329 0.1128048463
C 1.8768106845 5.1137993300 1.2129964454
C 1.2541203683 3.8858324834 1.4097383983
C 1.4862396122 2.8439651179 0.5161284306
N 0.9039801874 1.5522736067 0.7101779576
C 1.2425050188 0.8181629806 1.8447319390
O 1.8923865289 1.3294460676 2.7507402160
C 0.8415466614 -0.6399231209 1.8843354680
C 1.7692191467 -1.4848942077 0.9942033169
N 1.3060889756 -2.8714627804 0.8955272582
C 0.1487249325 -2.9830401054 -0.0047854351
C -0.2946024211 -4.4311934066 -0.1104464823
O 0.7616078704 -5.2664290681 -0.5985549678
C 1.8974854343 -5.1646394804 0.2684569595
C 2.3817512477 -3.7288745629 0.3764209463
H -6.9296879368 -1.7075738513 1.9188948329
H -6.9513344023 -0.7458782835 0.4278099390
H -5.6514396241 -0.5134743672 1.6234830800
H -6.1306657452 -3.0660407068 -0.0263869586
H -4.8248444053 -2.8468803411 1.1664793218
H 1.8611496575 -1.0273925886 -0.0088075381
H 0.8235251739 0.4192968693 -3.7263638967
H -1.3974395453 -0.6360143765 -3.5172013672
H 3.5336347317 4.4420054577 -1.6820425822
H 3.1922948921 6.2691455010 -0.0435071618
H 1.7063565712 5.9206226485 1.9179795846
H 0.6022330126 3.7209922488 2.2598867528
H 0.9401033428 -0.9640291159 2.9222462832
H -0.1978345043 -0.7751787818 1.5840908325
H 2.7705710875 -1.4869094210 1.4400612622
H -0.6895620181 -2.3921381237 0.3809855551
H 0.3950231272 -2.5971998723 -1.0149145052
H -0.6274998458 -4.7936051189 0.8758193968
H -1.1216345789 -4.5222813278 -0.8207333434
H 1.6346591763 -5.5472229366 1.2681569193
H 2.6787388755 -5.7979752283 -0.1614621659
H 2.7253009949 -3.3843724487 -0.6192876196
H 3.2366919903 -3.6883141374 1.0619494223
H -1.5899503877 0.5971287606 0.5999480528
H -3.3514848280 -0.9091965621 -2.2648400226
