82
CONF103
C -3.0602169144 2.5290043563 -1.5087287819
C -2.2909397311 2.2302575146 -0.2518514581
C -1.3225305549 3.0483591101 0.1739372602
C -2.6922231437 1.0229581397 0.5605959605
C -4.0297181684 1.2329866194 1.3001320731
C -4.3149137105 -0.1524061236 1.8692403950
C -3.8953801349 -1.1392902322 0.7512120367
C -2.9526584371 -0.3112942985 -0.1918893387
C -1.7877484540 -1.1511400671 -0.7693093076
C -0.9546590072 -0.3579991663 -1.7804497410
C 0.3214106884 -1.1078276927 -2.1306169789
C 1.2932467679 -1.2038246063 -0.9340494260
C 2.3918355444 -0.0422960490 -1.0178173084
C 1.8631355986 1.3293019487 -1.5070644020
C 2.9699085647 2.3868503648 -1.5906089395
C 3.6687028066 2.6364660058 -0.2539974649
C 4.1496306693 1.3268933218 0.4122543204
C 3.0479694909 0.2058456790 0.3696182993
C 1.9665121594 0.4777269500 1.4520030849
C 0.5610083230 -0.0608944595 1.1677121442
C 0.5563700159 -1.4075688527 0.4451774386
C -0.9123926383 -1.9848221051 0.2474365086
C -1.6985988366 -2.0815071456 1.5783281368
C -3.1798239889 -2.3692377033 1.3351439914
C -0.8011680670 -3.4401913636 -0.2864106412
C 1.3647038747 -2.4046981867 1.3025911850
C 5.4536066803 0.8980625903 -0.2954102077
C 4.5616864954 1.6036376702 1.8712207755
O 2.7896183762 3.3373116301 0.6475909454
C 3.3905916775 -0.6036168935 -2.0572014908
C -5.1149350928 -1.5741494481 -0.0554520214
O -5.9446892666 -2.4054292563 0.7622704433
H -2.8031593271 3.5175514653 -1.8962414185
H -4.1415992960 2.4993370732 -1.3339558948
H -2.8457632516 1.7922102213 -2.2905214084
H -0.7626933561 2.8436666974 1.0824887559
H -1.0634173798 3.9512027960 -0.3718683019
H -1.9322711181 0.8702050066 1.3333631288
H -3.9615103362 2.0192226137 2.0579254125
H -4.8113858752 1.5242480491 0.5870053706
H -3.6919792912 -0.3136338517 2.7574379088
H -5.3551012268 -0.3075573430 2.1707035502
H -3.5520843147 -0.0309394015 -1.0730607513
H -2.3087775879 -1.9162310405 -1.3628816072
H -1.5538802752 -0.1928175005 -2.6853003832
H -0.7088852868 0.6320408332 -1.3900772518
H 0.8174089459 -0.6323999922 -2.9813943603
H 0.0513850618 -2.1088241918 -2.4845886844
H 1.8819333625 -2.1182100945 -1.0803024083
H 1.0924195929 1.7073080640 -0.8282639843
H 1.3991308953 1.2428592509 -2.4947666797
H 3.7169581273 2.1149673436 -2.3434996001
H 2.5382721971 3.3350545875 -1.9412112138
H 4.5620297382 3.2631852595 -0.4241472419
H 3.5779954743 -0.7197443271 0.6352915330
H 2.3247833867 0.0642517981 2.4007835534
H 1.8710217309 1.5526928848 1.6064470689
H 0.0071182492 0.6652858701 0.5713818212
H 0.0415021102 -0.1311301498 2.1293407133
H -1.2686989567 -2.8682263049 2.2063415476
H -1.6177523784 -1.1515051049 2.1489238972
H -3.2949773511 -3.2272939185 0.6634613957
H -3.6758896684 -2.6551876946 2.2681554463
H -0.5170683129 -4.1313083144 0.5118770985
H -0.0641733201 -3.5447195088 -1.0853081711
H -1.7577748315 -3.7871787545 -0.6854983214
H 2.3695743670 -2.0311952006 1.5001650229
H 1.4781666937 -3.3709277835 0.8064363158
H 0.8867425017 -2.5706644921 2.2735700533
H 5.3990596061 0.9280918102 -1.3824832973
H 5.7314604690 -0.1192641339 -0.0022892440
H 6.2685504940 1.5645247583 0.0058608097
H 3.7417614132 1.9600938882 2.4919926005
H 5.3449411067 2.3689427118 1.8930209605
H 4.9707217519 0.6905503460 2.3199081255
H 2.4688585709 4.1198023351 0.1860479869
H 4.0181138003 -1.3789124964 -1.6054277809
H 4.0477976943 0.1439815794 -2.4965404603
H 2.8465080230 -1.0640285954 -2.8878788319
H -5.6694601688 -0.6813721307 -0.3915036038
H -4.7774532975 -2.1233656172 -0.9518044655
H -6.7158025317 -2.6621072600 0.2472785973
