19
CONF22
C -3.1661675600 0.2499505229 -0.3046847129
C -1.7994904822 0.3339342407 0.3032643589
C -1.5579274459 0.7650865820 1.5446392634
C -0.6975086597 -0.1298916115 -0.5862405005
O -0.8841062953 -0.6077397198 -1.6865440069
O 0.5314320064 0.0362232083 -0.0471473016
C 1.6250902276 -0.4409864740 -0.8595414535
C 2.9054567938 -0.1479642369 -0.1242638362
O 2.9687812668 -0.9902523902 1.0250275957
H -3.3931509901 -0.7797305472 -0.5974999087
H -3.9248124802 0.6002670112 0.3979115468
H -3.2194162637 0.8481762866 -1.2197838366
H -0.5525080253 0.7968021690 1.9465634447
H -2.3718580909 1.0888642117 2.1862421980
H 1.6107778669 0.0686273573 -1.8295413688
H 1.5088393820 -1.5167675952 -1.0296267641
H 3.7417972106 -0.3482972233 -0.8134955219
H 2.9321838523 0.9164720933 0.1540246279
H 3.7425885812 -0.7427741813 1.5406960864
