45
CONF11
C 4.1630825238 -1.6535721222 -2.0001994581
C 3.1115988350 -1.7733287361 -0.8987630532
C 3.3111740029 -0.7371822357 0.2057995166
C 2.2922266998 -0.8582003631 1.3433278445
N 0.9015886248 -0.6823522158 0.9235339064
C 0.4167231048 0.5143928744 0.4738096456
C -0.8129442360 0.5517129066 -0.2258615708
C -1.3361349038 1.7544351726 -0.6863868150
C -0.6916952305 2.9650172999 -0.4677445139
C 0.5081129467 2.9411928939 0.2471566693
C 1.0546975167 1.7429250251 0.7035391117
C 1.2617434580 4.1878405322 0.5342404477
O 2.3218749999 4.2270795187 1.1291560498
O 0.6444807470 5.2916271708 0.0650236466
S -2.8999811913 1.7494819536 -1.5856031847
O -3.9078473438 1.0659539976 -0.7631652439
O -3.1327032541 3.1244602388 -2.0480468545
N -2.7003138485 0.8142179886 -2.9657500267
O -1.4415178277 -0.6317411409 -0.5480206825
C -2.1216071900 -1.3210475700 0.4569196253
C -2.5287598981 -2.6096285833 0.1288409843
C -3.2285354341 -3.3544891831 1.0722098866
C -3.5108520448 -2.8184369986 2.3278775622
C -3.0922224878 -1.5260208687 2.6337317693
C -2.3956320152 -0.7628447906 1.6992501142
H 5.1710942588 -1.7969243299 -1.5957025075
H 4.0057308269 -2.3991972569 -2.7857318739
H 4.1278772239 -0.6620345899 -2.4649609193
H 3.1437893217 -2.7798425125 -0.4601629376
H 2.1119100094 -1.6545924032 -1.3365564637
H 3.2694351373 0.2709361076 -0.2270160688
H 4.3130279782 -0.8488772087 0.6408540150
H 2.5176524593 -0.1393206843 2.1390736291
H 2.3573741070 -1.8549465243 1.7926459536
H 0.4710499064 -1.4984151079 0.5141365607
H -1.1172915201 3.8869878620 -0.8384325521
H 1.9967851958 1.7794306363 1.2357684421
H 1.1957192424 6.0592836156 0.2913680720
H -2.4739256045 -0.1481707374 -2.7195745782
H -1.9807043968 1.2073987318 -3.5703198080
H -2.2978374727 -3.0102648888 -0.8527193371
H -3.5519421477 -4.3599916769 0.8222600821
H -4.0549504846 -3.4036264609 3.0615934086
H -3.3107728866 -1.0979571232 3.6069484484
H -2.0805773904 0.2486319770 1.9325140520
