47
CONF116
C -3.6413695333 -4.1753847781 0.1670725623
O -4.1485985975 -3.4251717510 -0.9798094918
P -5.1937795270 -2.2392751816 -0.7722307046
S -5.7162069541 -1.4062941633 -2.4401601930
O -6.3132412706 -2.9339336160 0.1318412049
C -7.4847731063 -2.1754441239 0.5439578724
O -4.5384637868 -1.2344426263 0.3363245751
C -3.6636742314 -0.2110238113 -0.0329416947
C -4.0905664982 1.0992725908 0.1226871944
C -3.2118896989 2.1376354756 -0.1697242251
C -1.9277000246 1.8558488296 -0.6403933636
C -1.5200587103 0.5296351701 -0.8091393789
C -2.3844962211 -0.5095162056 -0.4902793711
S -0.8732634441 3.2281692463 -1.0930160094
C 0.7242370450 2.7165733714 -0.4721976307
C 1.8487980601 2.9538152415 -1.2647027845
C 3.1178363733 2.6344924072 -0.7900464936
C 3.2391591304 2.0555202526 0.4647328688
C 2.1307549490 1.8092360597 1.2653237882
C 0.8695941933 2.1561984193 0.8003641791
O 4.5035397594 1.7487683410 0.9777942322
P 5.3439688664 0.4689333876 0.4406363117
S 4.3061756152 -1.1216252634 0.0355722996
O 6.4655764225 0.3503154300 1.5732447006
C 6.1683759398 -0.3293460882 2.8250396159
O 6.1683553530 1.1374269265 -0.7541584960
C 6.9853733592 0.3073877132 -1.6282593498
H -4.4342031640 -4.8054919218 0.5747702965
H -3.2627023499 -3.4911220115 0.9309887931
H -2.8297331027 -4.7881815634 -0.2234915819
H -7.1834389554 -1.3303761381 1.1685852778
H -8.0309166168 -1.8266088683 -0.3363834467
H -8.0968951745 -2.8697874541 1.1184629755
H -5.0933581287 1.3005287838 0.4837820624
H -3.5279508919 3.1660918492 -0.0292915345
H -0.5262812734 0.3048800413 -1.1815732783
H -2.0713178407 -1.5417184313 -0.6069534655
H 1.7375775352 3.3840152783 -2.2545372539
H 3.9994057863 2.8176246421 -1.3944776655
H 2.2622867776 1.3609573593 2.2442409920
H -0.0006990881 1.9814739749 1.4239740074
H 5.3595268050 0.1864339439 3.3500135039
H 5.8947969465 -1.3691106136 2.6294770288
H 7.0868942999 -0.2806975593 3.4090362731
H 7.7863304057 -0.1663466653 -1.0545876913
H 6.3631117749 -0.4484770974 -2.1137978696
H 7.4039017076 0.9881413830 -2.3687236401
