33
CONF152
C -2.3116589974 -1.9826731626 -1.2280978043
C -2.9189344715 -0.6702010110 -0.7427822011
C -2.8481428980 -0.4687768005 0.7634435729
S -1.1176927580 -0.4371490946 1.4564321240
P -0.4772586470 1.4187060117 0.7495812199
O -1.5239890220 2.4653148009 0.6378770993
O 0.8072875636 1.7509820917 1.6390613482
C 0.6407380200 2.1872584214 3.0381652277
C 2.0002656453 2.6051552490 3.5377955911
O 0.2261685180 1.2334713226 -0.7133598927
C 0.9599763105 0.1522683025 -1.1441514698
C 1.8824255146 -0.5088478911 -0.3391390017
C 2.6072789005 -1.5860948589 -0.8361306379
C 2.4049775882 -1.9829668026 -2.1508875129
C 1.5057482287 -1.3314066067 -2.9840189254
C 0.7826795734 -0.2630062540 -2.4674734362
Cl -0.3558324201 0.5678283318 -3.4959578160
Br 3.3964155195 -3.4634448414 -2.8484857239
H -2.7968821567 -2.8378313034 -0.7453183735
H -2.4337821305 -2.0867424250 -2.3101457880
H -1.2406062574 -2.0311803346 -1.0057829278
H -2.4500359044 0.1798550041 -1.2521585731
H -3.9843118140 -0.6362643541 -1.0068600052
H -3.3067947088 -1.3080248015 1.2973875351
H -3.3383509859 0.4551858368 1.0777924685
H -0.0732203412 3.0162407684 3.0553871699
H 0.2374891594 1.3455394264 3.6095868150
H 2.7052038763 1.7707180848 3.4901734465
H 2.3912244705 3.4400221924 2.9502813232
H 1.9111325882 2.9249522998 4.5802497174
H 2.0406559198 -0.1785495262 0.6810232807
H 3.3202789376 -2.0979168536 -0.2013060504
H 1.3575451839 -1.6424210268 -4.0107543985
