52
CONF37
C 4.8072483784 1.5100440261 3.2171828824
N 4.0516272810 0.3750528752 2.6901642314
C 3.6465596424 0.6261249450 1.3048672078
C 2.8556484509 -0.5511360168 0.7580508163
N 1.6558955238 -0.7849613171 1.5707841939
C 2.0650204488 -1.0467226887 2.9549546022
C 2.8573134676 0.1296364342 3.5036655788
C 0.8499934978 -1.8865474834 1.0284527765
C -0.0304626402 -1.4342591614 -0.1364618589
C -1.1921041181 -0.5606668451 0.3698008135
N -1.8064510732 0.3274577307 -0.6271166829
C -1.1454225762 1.5411809951 -0.9097629894
C 0.1350717378 1.8135125366 -0.4034973848
C 0.7706236998 3.0233688763 -0.6729834616
C 0.1655249678 3.9843889718 -1.4732512933
C -1.1042427984 3.7311208423 -1.9852694074
C -1.7596252785 2.5410746595 -1.6848696195
S -3.4544804315 2.3649611361 -2.1862912093
C -3.5188795762 0.6048099546 -2.3608377271
C -2.7367571268 -0.2183984284 -1.5216613563
C -2.9635641865 -1.5981779274 -1.5929426551
C -3.9153702459 -2.1244436517 -2.4669195378
C -4.6522720480 -1.3082120802 -3.3138367316
C -4.4331251140 0.0645709186 -3.2576303052
C -4.1303968731 -3.6056241570 -2.4480503562
F -4.7444810861 -4.0168971445 -1.3013970589
F -4.8972873755 -4.0366566032 -3.4739248187
F -2.9599881588 -4.2964850905 -2.5109172325
H 5.1169059283 1.3024586311 4.2470987609
H 4.2169236330 2.4465925116 3.2160629105
H 5.7048163928 1.6709177151 2.6104296196
H 4.5439411834 0.7774715341 0.6932536074
H 3.0289376170 1.5452811296 1.2304331795
H 3.5013597700 -1.4517700648 0.7408027154
H 2.5653245348 -0.3337076062 -0.2761047876
H 1.1680580189 -1.1933648747 3.5676560861
H 2.6790110807 -1.9667550922 3.0267832099
H 2.2032456199 1.0255280724 3.5311839056
H 3.1675227203 -0.0882701148 4.5326696827
H 1.4895169303 -2.7315713743 0.7131839771
H 0.2035983668 -2.2635418649 1.8321498323
H 0.5621454749 -0.8841222421 -0.8748514654
H -0.4065281391 -2.3226211236 -0.6524597459
H -0.8375070701 0.0726925543 1.1880187099
H -1.9840106424 -1.1894433204 0.7896197260
H 0.6457332362 1.0905522809 0.2210474514
H 1.7558405013 3.2009347396 -0.2531513495
H 0.6637860882 4.9221976953 -1.6938461575
H -1.6084903419 4.4724400478 -2.5979258421
H -2.4100574051 -2.2814334666 -0.9650142339
H -5.3826076607 -1.7189881210 -3.9996308246
H -5.0030812105 0.7304062429 -3.8977102626
