55
CONF89
C -7.5055899165 -4.0584140383 0.9011365319
C -6.9373464434 -3.1190905206 -0.1353812205
O -5.6575659031 -2.6462839351 0.3755141203
C -4.9926710101 -1.7865400657 -0.4330477616
O -5.3961331252 -1.4095277490 -1.5199349015
N -3.8184692129 -1.4253593927 0.1718690380
C -2.8290564629 -0.5567318143 -0.3071464711
C -1.7417562046 -0.3158464286 0.5413740235
C -0.7027034455 0.5043531540 0.1289577877
C -0.7586925603 1.1459658233 -1.1111062478
C -1.8532304414 0.9243086319 -1.9433749386
C -2.8765598763 0.0655876789 -1.5620906981
S 0.5607013982 2.2336635917 -1.6064695020
C 0.9552950356 2.9018035614 -0.0066530637
C 1.3929717105 4.2193368562 0.1235473301
C 1.6756817457 4.7301128647 1.3862271469
C 1.4674420846 3.9493769358 2.5221075072
C 1.0137769004 2.6406036679 2.3948297461
C 0.8141471252 2.0942827660 1.1289236529
N 0.4356344671 0.7286513938 0.9622946729
C 1.2385319706 -0.3494107548 1.3256658546
O 0.8711245569 -1.4996430293 1.1153832781
C 2.5914585517 -0.0637097585 1.9522226895
C 3.5743157458 0.5935822515 0.9717013244
N 3.5186393875 -0.0105250432 -0.3583257618
C 4.2397528710 0.8121648167 -1.3349794701
C 4.1248316256 0.1914544448 -2.7163521839
O 4.6544938323 -1.1391276271 -2.7320512055
C 3.9588183848 -1.9488032877 -1.7775332009
C 4.0685076009 -1.3716517731 -0.3764404943
H -6.8402618742 -4.9111270948 1.0626391981
H -8.4711146766 -4.4350197856 0.5515010606
H -7.6600637792 -3.5433686064 1.8533679391
H -7.5869181511 -2.2544437528 -0.3038426451
H -6.7673075893 -3.6216562450 -1.0926458415
H -3.6535329561 -1.8374345409 1.0794957848
H -1.6915188682 -0.7856192437 1.5172584605
H -1.9096884639 1.4258833350 -2.9041907565
H -3.7126881687 -0.1043790276 -2.2240765365
H 1.5043762034 4.8400393635 -0.7598949151
H 2.0265793159 5.7522297765 1.4830017639
H 1.6449788004 4.3623306950 3.5093775731
H 0.8288193655 2.0304599377 3.2726016570
H 2.5038712415 0.5727933664 2.8356135946
H 2.9651992425 -1.0333178944 2.2870159206
H 3.3305307787 1.6554309959 0.8612755764
H 4.5886974105 0.5384947161 1.4119578974
H 3.7951514063 1.8154121000 -1.3539276950
H 5.3103405206 0.9155437251 -1.0677222275
H 3.0672284999 0.1721944611 -3.0274007805
H 4.7018902568 0.7680679625 -3.4450002322
H 2.8969269847 -2.0278308498 -2.0631740345
H 4.4146025719 -2.9421876416 -1.8179003145
H 5.1291768646 -1.3788775736 -0.0550957363
H 3.4983752490 -2.0082023250 0.3088991988
