47
CONF24
C -7.1087705051 -1.6234888110 1.7045951549
O -6.7161964999 -1.2168890790 0.3619046774
P -5.1768407410 -0.9584874779 0.0271133452
S -3.8929664861 -2.3709506469 0.3654276466
O -5.2311916183 -0.5409697573 -1.5095190980
C -6.1158556564 0.5354558440 -1.9560585755
O -4.9402982585 0.4161506124 0.8757915569
C -3.6617464243 0.9057160320 1.1428426679
C -2.8523515365 1.3676988153 0.1094916290
C -1.6059534760 1.8977453512 0.4147698478
C -1.1701078521 1.9418965382 1.7422766688
C -1.9951958540 1.4743573771 2.7663455920
C -3.2530848836 0.9594732880 2.4667196930
S 0.4045200592 2.6717718078 2.1745179520
C 1.5418924266 1.8378699220 1.0738768028
C 1.3904223978 0.4924595874 0.7275182110
C 2.3274987202 -0.1243185102 -0.0926474449
C 3.4232466977 0.6061641982 -0.5361154069
C 3.5974709037 1.9379445858 -0.1906478791
C 2.6439976222 2.5598424496 0.6086148745
O 4.3551450371 0.0200696268 -1.3997647526
P 5.4389684379 -1.0641678733 -0.8703560084
S 6.1806915799 -0.7349783830 0.8955231514
O 6.4549304100 -1.0960870824 -2.1030197261
C 7.4734723239 -0.0639971878 -2.2359608028
O 4.6310984514 -2.4250013730 -1.0886502815
C 5.1774764679 -3.6862559574 -0.6052959287
H -6.6231798849 -2.5679763874 1.9631261955
H -8.1899097184 -1.7510731835 1.6676859608
H -6.8428481240 -0.8446690056 2.4238677086
H -5.9343520996 1.4394528897 -1.3692135071
H -5.8578137736 0.7065451837 -3.0003775448
H -7.1567995390 0.2192481049 -1.8658808278
H -3.1992460546 1.3294943048 -0.9178523975
H -0.9722635192 2.2737664205 -0.3815847008
H -1.6549649096 1.5010986601 3.7961500480
H -3.9053406891 0.5853433848 3.2484263293
H 0.5406867324 -0.0761540387 1.0897584059
H 2.2130713122 -1.1646663272 -0.3777934052
H 4.4604240654 2.4831224937 -0.5576714171
H 2.7596821480 3.6076064713 0.8666910730
H 7.0025699502 0.9179676577 -2.3339450338
H 8.1400869205 -0.0838769413 -1.3702819811
H 8.0225765035 -0.3106617305 -3.1439877313
H 5.3315255114 -3.6355474568 0.4752632024
H 4.4284305258 -4.4392592354 -0.8475881758
H 6.1173917876 -3.9087849660 -1.1170397607
