56
CONF498
C -0.4702049258 -3.8108524945 -1.5415225976
C -0.2816878240 -3.3081145780 -0.1113923570
C -0.5753871952 -4.3755409895 0.9441889635
N -1.0458377583 -2.0676345656 0.1350401463
C -2.4116940823 -2.0047347892 0.3479081886
C -3.4193090355 -2.9380972994 0.0841909443
C -4.7305716770 -2.5781940289 0.3666792715
C -5.0482680925 -1.3130884766 0.8913245157
C -4.0534507016 -0.3850107305 1.1543509695
C -2.7174278098 -0.7300077582 0.9017492999
C -1.4826474450 -0.0195025548 1.0276235068
C -0.4821440143 -0.8587426813 0.5442899611
C 0.9240966505 -0.5232070015 0.4643525544
C 1.8108103521 -0.8805657546 -0.4784585930
C 3.2335171688 -0.4174672554 -0.4684815600
C 3.5542253434 0.4779478607 -1.6646035843
C 2.7222820977 1.7551433826 -1.6797449567
C 3.0534605696 2.6282806965 -2.8877058915
C 2.1438307903 3.8266653123 -2.9595378910
O 0.9607131608 3.8202839347 -2.6894947891
O 2.7895740634 4.9314931251 -3.3907948414
O 2.8749780442 2.5092478922 -0.4662020617
O 4.1357196760 -1.5427649710 -0.5630417649
C -1.3144721356 1.3556798029 1.4991284279
C -1.9648459591 1.7913153665 2.6652894227
C -1.8196534850 3.0941598027 3.1286173407
C -1.0095446650 3.9602399477 2.4129633431
C -0.3496717540 3.5806207605 1.2573492240
C -0.5158808966 2.2766162506 0.8030162935
F -0.8597550124 5.2345757812 2.8639373406
H 0.1929772978 -4.6636250803 -1.7147561415
H -1.4964698212 -4.1381691964 -1.7272464337
H -0.2227870951 -3.0273790569 -2.2638811610
H 0.7645077533 -3.0229486927 0.0111236029
H -1.5819860259 -4.7891700379 0.8552105877
H -0.4552626334 -3.9626139795 1.9502482911
H 0.1374062657 -5.1963083246 0.8208775012
H -3.2084390208 -3.9098250316 -0.3431781391
H -5.5267335046 -3.2876639883 0.1639446945
H -6.0862121572 -1.0610268597 1.0847062175
H -4.3031453478 0.5959335221 1.5467422351
H 1.2609131704 0.1619761900 1.2422780084
H 1.5221269569 -1.4940515136 -1.3310748691
H 3.4267154729 0.1381795136 0.4594378044
H 4.6230081048 0.7299588579 -1.6378618380
H 3.3704443572 -0.0827100776 -2.5898733462
H 1.6587349999 1.4971978593 -1.7157653448
H 4.1004293134 2.9465817735 -2.8654855274
H 2.9027215760 2.0564190107 -3.8131435030
H 2.1419940445 5.6555722975 -3.4482489747
H 3.8183088342 2.6853113437 -0.3447442989
H 3.9618096704 -2.1116017710 0.1980605379
H -2.5746644234 1.0934969836 3.2299394274
H -2.3136803486 3.4321755938 4.0332283822
H 0.2662822362 4.2920270882 0.7177487307
H -0.0297527214 1.9735192926 -0.1176465687
