44
CONF6
C -5.5615202611 -0.9705662895 0.8175420968
N -4.1038839121 -0.8929808393 0.6583961416
C -3.5423396291 0.3128217516 1.3102256881
C -3.9164954080 1.4946951156 0.3720642018
C -4.0348739274 0.8320576360 -1.0254527657
C -3.7155739081 -0.6645775451 -0.7527327332
C -2.2129858251 -0.9544477682 -0.8741047183
C -1.4292262370 0.0120616678 0.0078406220
C -2.0227159541 0.1213702347 1.4049605178
O -0.0482832028 -0.4551390842 0.1724187073
C 0.8216950196 -0.1658215855 -0.8080637890
O 0.5403192721 0.4430978089 -1.8211929690
C 2.2165882624 -0.6582586995 -0.4584689723
C 2.9215918680 -1.1912588536 -1.7112128177
O 2.2077901757 -2.2806607789 -2.2993452568
C 3.0041795203 0.4678899674 0.1859300447
C 3.2384221928 1.6653150397 -0.4983846666
C 3.9838772503 2.6810930326 0.0940030508
C 4.5035862237 2.5148075545 1.3762974079
C 4.2729268692 1.3255243354 2.0637614334
C 3.5272774362 0.3088797842 1.4716241759
H -6.1057178942 -0.0860338629 0.4461751165
H -5.9349214868 -1.8480335574 0.2794003005
H -5.8009525488 -1.0941459938 1.8788894071
H -3.9608310209 0.4249185619 2.3154448832
H -4.8670557466 1.9396204383 0.6777243487
H -3.1616147847 2.2860478650 0.4018566749
H -3.3455600623 1.2632309665 -1.7577605325
H -5.0455656195 0.9410413577 -1.4274955832
H -4.2731599286 -1.3402855210 -1.4090920799
H -1.8899786342 -0.8582841402 -1.9155876792
H -2.0198700841 -1.9815405914 -0.5437812324
H -1.3811849874 0.9978806858 -0.4639080162
H -1.8154277461 -0.7977617137 1.9642988918
H -1.5639873249 0.9610665831 1.9387029289
H 2.9707084417 -0.4084269015 -2.4728040138
H 3.9457235903 -1.4825444825 -1.4416776915
H 2.8307223677 1.8084161876 -1.4942853747
H 4.1578128638 3.6056506652 -0.4479818465
H 5.0840018605 3.3081045645 1.8369207058
H 4.6728142959 1.1873952995 3.0636798096
H 3.3496300381 -0.6175861957 2.0104573177
H 2.1212707704 -1.4718806335 0.2676438973
H 2.2650881647 -3.0324102944 -1.6956229524
