55
CONF8
C -4.8252342137 -3.6075285943 1.2845715763
C -3.9734686479 -3.8581616058 0.0587759373
O -3.7812189108 -2.6305480346 -0.7044310625
C -2.8009727211 -1.8069635863 -0.2648312535
O -2.0506729312 -2.0469649937 0.6652335187
N -2.7906377160 -0.6740260126 -1.0383331442
C -1.8637804953 0.3741294441 -0.9715058519
C -1.1406273975 0.6661720400 0.1872679517
C -0.1899299345 1.6815879774 0.1626800443
C -0.0451310041 2.4959259561 -0.9646279662
C -0.8146117583 2.2402108284 -2.0984905470
C -1.6934227768 1.1685109669 -2.1134845317
S 1.1103354566 3.8470265394 -0.9215948442
C 0.8939335142 4.3071111518 0.7869274475
C 0.9657518440 5.6446884529 1.1757092740
C 0.8055710642 5.9772476213 2.5166451825
C 0.5397974195 4.9857881756 3.4602606403
C 0.4517573909 3.6536836763 3.0704296174
C 0.6539815398 3.3103016146 1.7365142200
N 0.6225481371 1.9475688578 1.3056486785
C 1.5819084996 1.0598204318 1.7997033726
O 2.3217839178 1.3908445696 2.7204200601
C 1.7320850595 -0.2627250939 1.0966660955
C 2.5584527772 -0.0661635187 -0.2103795293
N 2.5391045332 -1.1868939176 -1.1402650240
C 1.2340162097 -1.3989679167 -1.7697592009
C 1.3596742545 -2.4730441625 -2.8380448384
O 1.8380714245 -3.7020144176 -2.2783044490
C 3.1124312349 -3.4961898474 -1.6564039518
C 3.0240289034 -2.4428086874 -0.5630159388
H -5.7924808194 -3.1814450199 1.0032041221
H -4.3232743199 -2.9286314786 1.9786925277
H -5.0033491351 -4.5569573377 1.7992209586
H -4.4715455093 -4.5272118802 -0.6458558393
H -2.9946255599 -4.2696263230 0.3179158981
H -3.4095146990 -0.6802102319 -1.8369001506
H -1.2922834457 0.0960221391 1.0926220225
H -0.7141941977 2.8705647397 -2.9759074676
H -2.2660209593 0.9532312606 -3.0105884631
H 1.1426653882 6.4150489337 0.4319982907
H 0.8684760935 7.0169837798 2.8206254236
H 0.3965823669 5.2498274479 4.5027395532
H 0.2457593174 2.8731281379 3.7936781757
H 2.2624260034 -0.9247746431 1.7834143976
H 0.7688938570 -0.7126238574 0.8554170776
H 2.1805911419 0.8122102730 -0.7471668127
H 3.5985463068 0.1415079706 0.0694932287
H 0.4599456487 -1.7141319955 -1.0433873540
H 0.8986852383 -0.4601774331 -2.2293345108
H 0.3823145472 -2.6899095768 -3.2791444668
H 2.0471982249 -2.1348206622 -3.6301875872
H 3.4139869387 -4.4601703504 -1.2366911277
H 3.8487094642 -3.1865014276 -2.4156342916
H 4.0189552371 -2.2809906514 -0.1293934822
H 2.3580287854 -2.8179606225 0.2371898972
