49
CONF33
C -5.5470770199 -0.4145286297 -2.1169701291
C -4.1234189149 -0.9214979399 -1.8673232053
C -3.2247664282 -0.5950186981 -3.0636498006
C -3.5555536297 -0.3068848645 -0.5871533398
C -4.2544167505 -0.6779120061 0.7549752266
C -3.9233179462 -2.1960138527 0.8679910499
C -2.4884666646 -2.2913300308 0.2755098963
C -2.1605620000 -0.8163639599 -0.1120204163
C -2.0428985107 -0.0577850094 1.1841681702
C -3.3389391997 0.0285158390 1.7223495196
C -3.5874583153 0.6849019901 2.9163255315
C -2.5113050497 1.2942333318 3.5722846681
C -1.2252318760 1.2222749500 3.0483492994
C -0.9767355314 0.5337088853 1.8503432066
N 0.3371851023 0.5445947101 1.3186009104
C 1.0268594326 -0.5654218690 0.9232798571
O 0.5865013206 -1.7112216729 1.0317835193
C 2.3687727734 -0.3215837005 0.3554727072
C 3.3432137692 -1.3084502691 0.2930005244
N 4.4238453810 -0.7667417833 -0.3011574574
N 4.2296214052 0.5136281606 -0.6535591969
C 2.9869380254 0.8000758810 -0.2558052403
C 2.4805057931 2.1605598514 -0.5683391801
F 1.3075253986 2.0980601287 -1.2892602582
F 2.1658739837 2.8545527624 0.5965161658
C 5.7032191763 -1.4100069332 -0.5714899326
H -6.2236982793 -0.6880120493 -1.3015121217
H -5.9507585907 -0.8336916757 -3.0446055662
H -5.5528600725 0.6784409461 -2.2099910470
H -4.1652246537 -2.0123858095 -1.7615343212
H -2.2196068621 -1.0101289916 -2.9415419159
H -3.6477393899 -1.0031008600 -3.9876371598
H -3.1305813555 0.4909247387 -3.1866747168
H -3.5340140577 0.7854864793 -0.7083700368
H -5.3127915513 -0.4328559488 0.8576543538
H -4.6401100242 -2.7867116425 0.2893398285
H -3.9741808292 -2.5342492387 1.9063807652
H -2.4613341213 -2.9300282127 -0.6128436048
H -4.5924683896 0.7512547698 3.3227400312
H -2.6771389259 1.8364416184 4.4981197648
H 3.3253888917 -2.3324329653 0.6359433946
H 3.2078350027 2.7559755476 -1.1271444007
H 5.9136915380 -1.3697857334 -1.6427575879
H 5.6404903982 -2.4487959555 -0.2465271211
H 6.4969753470 -0.8982105249 -0.0218300967
H -1.7570022558 -2.6745881328 0.9872586415
H -1.3251640025 -0.7020088270 -0.8027575755
H 0.8572532905 1.4043122846 1.4277465815
H -0.3980225669 1.7036324490 3.5622522780
