44
CONF87
C -5.5466272163 1.1812322676 -0.0386752979
N -4.0869916996 1.0718927130 -0.1520785521
C -3.6855473188 0.0198868042 -1.1134704040
C -3.9326392398 -1.3248727929 -0.3734087565
C -3.7898030470 -0.9520774133 1.1252945492
C -3.4733243505 0.5694968289 1.0986166332
C -1.9640686719 0.8353426339 1.0124256279
C -1.3726099385 0.0653148896 -0.1591514415
C -2.1981164029 0.2265195455 -1.4310971654
O -0.0193397876 0.5930806641 -0.3701142397
C 0.8829237790 -0.2131366501 -0.9543655501
O 0.6561938697 -1.3513736237 -1.3126535974
C 2.2425389036 0.4543374362 -1.0887784999
C 2.1857997945 1.9898044232 -1.0928310363
O 1.3569117107 2.5060032187 -2.1353098851
C 3.1579861339 -0.0394676932 0.0160359948
C 4.3984397406 -0.6001468776 -0.2956547527
C 5.2585550228 -1.0201009472 0.7164908571
C 4.8857758129 -0.8860881354 2.0518369408
C 3.6484687115 -0.3293516093 2.3703573522
C 2.7897423196 0.0927560183 1.3593081817
H -5.7923370029 1.9390218245 0.7125879370
H -5.9580989405 1.5075922606 -0.9994639303
H -6.0508467242 0.2426726599 0.2468173688
H -4.2723213102 0.1080554089 -2.0332739308
H -4.9352659813 -1.7023751291 -0.5907041269
H -3.2199024790 -2.0932642240 -0.6876152634
H -3.0005980602 -1.5183871777 1.6289131562
H -4.7202493877 -1.1397619106 1.6675657467
H -3.8891818370 1.1009663547 1.9604074991
H -1.4690332368 0.5342731826 1.9422891553
H -1.8004178075 1.9088525227 0.8653732388
H -1.2670795593 -0.9937856102 0.0918695014
H -2.0551666139 1.2389393645 -1.8270065815
H -1.8657863551 -0.4920508074 -2.1872555935
H 1.8649635262 2.3597227068 -0.1106470554
H 3.1966726075 2.3634703371 -1.2837639859
H 4.6909380935 -0.7072674017 -1.3364141885
H 6.2200066207 -1.4544929993 0.4601751193
H 5.5548129720 -1.2152630365 2.8407128180
H 3.3496900381 -0.2239405969 3.4087955201
H 1.8256857969 0.5228391840 1.6169696318
H 2.6429114369 0.1160689674 -2.0500583844
H 0.4386364220 2.3594041700 -1.8717479577
