49
CONF83
C -4.4851217469 -0.8791216101 -0.9227886807
C -4.0450480730 -1.2131240084 0.4869239421
C -2.8899878511 -0.4264591303 1.1424243893
C -2.7400180925 -1.9097348703 0.7323907840
C -2.5980658846 -2.8859661681 1.8845334908
C -1.8410695074 -2.2854727706 -0.4266467384
C -2.1684279019 0.6469588280 0.4627495265
O -1.8863483718 0.7577955024 -0.7127865897
O -1.8022150923 1.6070870835 1.3888291344
C -0.9870931921 2.6801860158 0.8547273249
C -1.2435600854 3.8345708524 1.7150465710
N -1.4192925823 4.7589895537 2.3843876063
C 0.4779825116 2.3010451619 0.8480140282
C 1.1395109685 2.1657220254 -0.3679173917
C 2.4748169409 1.7704489926 -0.3747183166
C 3.1514040761 1.5142887621 0.8161427776
C 2.4717886925 1.6505868943 2.0237320912
C 1.1387333048 2.0434597610 2.0503585532
O 3.0883792303 1.7146674043 -1.6076700128
C 4.1169973590 0.8023750980 -1.8052550486
C 3.9667101435 -0.5395023359 -1.4639422621
C 5.0001229692 -1.4260172346 -1.7507133495
C 6.1626076528 -0.9797454689 -2.3784301271
C 6.2896454216 0.3641162451 -2.7218360426
C 5.2671086737 1.2650802614 -2.4332771327
C -5.2328676327 -1.4836727773 1.3908997422
H -3.6646161179 -0.6113526510 -1.5849550150
H -5.1890429988 -0.0400503396 -0.9011270859
H -5.0095774730 -1.7431184026 -1.3470289623
H -3.0005831455 -0.2611308736 2.2088765471
H -3.1333118004 -2.5735608598 2.7818323598
H -2.9741457549 -3.8712866667 1.5851378582
H -1.5401344762 -2.9958266158 2.1454998577
H -1.8860807854 -1.5848618777 -1.2573271162
H -2.1276600888 -3.2786640190 -0.7911580110
H -0.8008818313 -2.3413664652 -0.0871757049
H -1.3187247672 2.9265090569 -0.1604959545
H 0.6303892110 2.3521575764 -1.3074883313
H 4.1939760989 1.2165277110 0.7999384615
H 2.9971359514 1.4569884214 2.9532744908
H 0.6157231315 2.1493497049 2.9956663740
H 3.0552944237 -0.8804183276 -0.9836161612
H 4.8901192967 -2.4738480362 -1.4893233944
H 6.9629976208 -1.6775406405 -2.6012435275
H 7.1903477576 0.7191230385 -3.2126763336
H 5.3498765183 2.3160657380 -2.6895887292
H -5.9393708046 -0.6488750841 1.3327878319
H -5.7538208781 -2.3888154192 1.0575152448
H -4.9546000341 -1.6145660301 2.4371665211
