70
CONF239
C -3.0107269610 0.4387006804 0.0800413802
C -4.1118174598 0.9953054093 1.0158709489
C -4.7084166491 -0.1199592272 1.8110964849
C -5.9268208036 -0.3362708169 2.4085619475
N -5.9259153039 -1.5930688729 3.0062532388
C -4.7127829310 -2.2050827081 2.7895209982
C -4.1808781984 -3.4487586940 3.1397558346
C -2.8833026931 -3.7153028337 2.7086337244
C -2.1193699531 -2.7944104440 1.9548971512
C -2.6448367084 -1.5524243919 1.6135764230
C -3.9429423788 -1.2890817652 2.0442002417
C -1.9680522595 -0.4327443231 0.8485460809
C -0.8849397139 -0.9577898971 -0.0918609848
C -0.2345865969 0.1968708643 -0.8516396438
C -1.3223241595 0.9938940368 -1.5690459147
N -2.2915368786 1.5344459191 -0.6069834752
C -3.1946784559 2.4607691196 -1.3162331588
C -2.4554335886 3.6321985228 -1.8898360886
C -2.6108147624 4.0900646771 -3.1298746529
C 0.7675155855 -0.3340091216 -1.8627339115
O 0.4700450748 -1.2549365197 -2.6277338964
N 2.0331391120 0.1949392725 -1.8558545785
C 3.0438958383 -0.3952913289 -2.7623120465
C 3.5672191541 -1.7717961426 -2.3388225839
C 4.6663040464 -1.7770325545 -1.2783122970
N 4.2764074288 -1.2236344712 0.0289523995
C 5.4504360167 -1.1347196433 0.9053886039
C 3.2240740910 -2.0115734538 0.6779811177
C 2.3187488287 1.4679261793 -1.2205348870
O 1.6303948707 2.4624003581 -1.4560982983
N 3.3914936997 1.4167943353 -0.4281585108
C 3.8755403104 2.5899638860 0.2897501705
C 3.1811696390 2.7644551401 1.6386988962
H -3.5029925995 -0.2208738756 -0.6663495336
H -3.6566886787 1.7533263069 1.6704535162
H -4.8920508169 1.4942909007 0.4359625786
H -6.8074101498 0.2888614392 2.4659100698
H -6.7056625962 -1.9911020440 3.5039708665
H -4.7431414384 -4.1780631450 3.7141991378
H -2.4379841692 -4.6737243144 2.9591250366
H -1.1163950922 -3.0796862808 1.6538490544
H -1.4920704112 0.2381320555 1.5828039294
H -0.1256274454 -1.5035222721 0.4781852768
H -1.3309940465 -1.6585824264 -0.8077304223
H 0.2593474363 0.8595544177 -0.1345057766
H -0.8672333076 1.8290144326 -2.1078812873
H -1.8168814931 0.3389683516 -2.3141095845
H -3.7715504473 1.9502190089 -2.1118633500
H -3.9147647918 2.8621444576 -0.5961289994
H -1.7821716464 4.1429140158 -1.2000966043
H -3.2703082934 3.5911183323 -3.8366282949
H -2.0887078986 4.9771588349 -3.4756174248
H 3.8701579832 0.3176386636 -2.8392805494
H 2.5801280983 -0.4805358219 -3.7504994756
H 2.7286170739 -2.4119433560 -2.0502295234
H 4.0023853633 -2.2339664104 -3.2331290519
H 5.5098055095 -1.1764428682 -1.6435307584
H 5.0351138497 -2.8137473953 -1.1590365969
H 5.8932938051 -2.1261923370 1.1065120178
H 5.1613037511 -0.6846814009 1.8608359871
H 6.2128124230 -0.5026458963 0.4381537316
H 2.3185477153 -2.0219316324 0.0661699134
H 3.5397319342 -3.0552680629 0.8544489024
H 2.9766074105 -1.5559709277 1.6421172156
H 3.7713944661 0.4652292472 -0.2075395540
H 4.9546925754 2.4682869362 0.4317677606
H 3.7169414336 3.4723877283 -0.3381311406
H 2.1028317846 2.8920557226 1.5028258688
H 3.5726128785 3.6468732575 2.1543869687
H 3.3501011137 1.8898648497 2.2749200706
