41
CONF8
C 3.5509186699 0.9463091934 1.0891251875
C 2.9748029653 1.2804853030 -0.2440722865
N 1.9930408075 0.4779724847 -0.6964269235
C 1.4944181183 0.8047860632 -1.8894578307
N 1.8998365628 1.8316960582 -2.6514586017
C 2.8828468607 2.5422987942 -2.1055831703
N 3.4589441889 2.3267894181 -0.9089032636
O 3.3841904818 3.5835804822 -2.7604338244
C 2.8267681654 3.8933360830 -4.0624929903
N 0.4675682694 0.0570572532 -2.4247701061
C -0.2336937349 -1.0391636779 -1.9116854194
O -1.1903521634 -1.4922481634 -2.5189078991
N 0.2505965896 -1.5433478512 -0.7251273700
S -0.6095055742 -2.7046422205 0.1716810982
O 0.1377422219 -2.7933113191 1.4327683586
O -0.7941645516 -3.8944472852 -0.6602093072
C -2.2248850182 -1.9913739452 0.5063336771
C -3.3069514799 -2.4753686544 -0.2191018573
C -4.5870626207 -2.0224752293 0.0854523265
C -4.7754541658 -1.1148006272 1.1219499624
C -3.6876625513 -0.6480307085 1.8543126525
C -2.3940645877 -1.0691064119 1.5466298772
C -1.2483855918 -0.4441013632 2.2789238865
O -0.3638259598 0.1863954607 1.7369196032
O -1.3676792820 -0.6132346383 3.5985265330
C -0.3282558550 0.0100260143 4.4017337944
H 4.0947382987 -0.0024094115 1.0182749398
H 2.7460474677 0.8020588297 1.8156404827
H 4.2312107746 1.7278475890 1.4255700756
H 1.7639723411 4.1284300198 -3.9726073621
H 2.9683064702 3.0519664604 -4.7443369514
H 3.3861245263 4.7633771535 -4.4031368183
H 0.1150924609 0.3784602047 -3.3177198897
H 0.9415751042 -0.9639076617 -0.2176479540
H -3.1463143177 -3.2035750144 -1.0045358881
H -5.4341530616 -2.3912736052 -0.4825326282
H -5.7737808828 -0.7690469216 1.3682594593
H -3.8346979485 0.0605943189 2.6623558600
H -0.3338165943 1.0907134818 4.2442084557
H 0.6454425770 -0.4037210223 4.1300315150
H -0.5794784573 -0.2339546482 5.4324506864
