85
CONF119
C 5.0833643431 2.8731000523 -3.4720791842
C 4.9023478741 1.3619327578 -3.3437001233
C 4.5728397108 0.8774914165 -1.9352734515
C 5.5609288421 1.3033515452 -0.8457365179
C 5.0212882287 0.8514242929 0.5146770376
C 3.6101317257 1.3869565573 0.7312941090
C 2.6923371974 0.9750737983 -0.4283379635
O 3.2474754424 1.3884183171 -1.6504407205
C 1.3084360168 1.6296816507 -0.3667125876
C 0.4354103364 1.0151728406 0.7147519944
C 0.3772162228 -0.4890648974 0.5418975138
C 1.7959338647 -1.0415085922 0.5498911037
O 2.5655801523 -0.4574952023 -0.5047631753
C 1.8215239726 -2.5616598656 0.3788697377
C 1.4070091201 -3.2311882251 1.6534356609
C 0.4670806818 -4.1602682919 1.8647384948
C -0.3925913172 -4.7941935539 0.8039408030
C -1.8852415232 -4.3499881929 0.8398431474
C -2.1326255233 -3.1842484551 -0.0624410373
C -2.6864327775 -2.0086682794 0.2777113542
C -2.9838764783 -1.0069828100 -0.7206760627
C -3.5488452468 0.2064598608 -0.6084172941
C -3.9044487160 1.0487340332 -1.7917131309
O -5.1983796795 1.5946849139 -1.4740866236
C -5.3600495473 1.6303573300 -0.0493052954
C -4.1275910132 0.9371533382 0.5901682046
C -3.1409357617 2.0334253048 1.1690911060
C -3.1186531084 3.2939192006 0.3584994884
C -4.2744596495 3.8495121990 -0.0117536373
C -5.5394390038 3.1009791837 0.3404240532
O -5.7920697833 3.2517993690 1.7470253291
C -4.3971806505 5.1189824491 -0.7866627205
C -1.8212437542 1.3675028949 1.4554687387
O -1.6732801006 0.6188563255 2.4053774871
O -0.8763442673 1.6475439940 0.5487648979
O -4.5650433869 0.1004294706 1.6487546647
C -2.7933410844 -5.5163591300 0.4149357713
C 0.2368385689 -4.7008466546 3.2515535653
C 6.9581523375 0.7440255563 -1.1033822959
H 5.1952108976 3.1585006091 -4.5222352691
H 4.2164051044 3.4026563472 -3.0672622006
H 5.9742599525 3.2228294778 -2.9410041180
H 4.0849159003 1.0308857502 -3.9941930636
H 5.8028514834 0.8400458643 -3.6872179117
H 4.5216973519 -0.2218655963 -1.9458551171
H 5.6051128861 2.4017155435 -0.8403867217
H 5.0117751318 -0.2462498044 0.5553799794
H 5.6848021280 1.1988729759 1.3156415405
H 3.6260178583 2.4833785723 0.7566533716
H 3.2046117558 1.0531625035 1.6917412497
H 0.8293232089 1.4656835987 -1.3377186517
H 1.4209753317 2.7079513062 -0.2186257617
H 0.7869755648 1.2669725338 1.7233677774
H -0.0926940589 -0.7285431905 -0.4194469454
H -0.2049607134 -0.9588376459 1.3352192225
H 2.2689133490 -0.8106616083 1.5203219740
H 1.1913702121 -2.8439528432 -0.4700457361
H 2.8549221044 -2.8420702219 0.1313545226
H 1.9669488135 -2.8953011072 2.5283653273
H -0.3581904111 -5.8813622923 0.9594349502
H 0.0076942640 -4.6148971346 -0.1989376866
H -2.1497632818 -4.0600509687 1.8637455113
H -1.8871098720 -3.3545380451 -1.1145307086
H -2.9385997589 -1.8166953592 1.3157709933
H -2.7288770441 -1.3107565993 -1.7380296532
H -3.1848599503 1.8697926915 -1.9462598958
H -3.9916225568 0.4703015797 -2.7164014384
H -6.2498014252 1.0440781549 0.2273900430
H -3.5761376768 2.2643366734 2.1483782213
H -2.1637238849 3.7531526794 0.1223514490
H -6.3839330506 3.5010868982 -0.2412585092
H -6.4595260398 2.6017497038 2.0002833214
H -3.4202517521 5.5672118876 -0.9845795674
H -5.0113331474 5.8457792102 -0.2408348880
H -4.8986615004 4.9331004015 -1.7446145504
H -3.8221161244 0.0041653116 2.2639046333
H -2.5354042376 -5.8551362553 -0.5951380755
H -2.6739793856 -6.3650238283 1.0968173019
H -3.8441471315 -5.2136143343 0.4127743935
H 0.8367147495 -4.1732937874 3.9967642654
H 0.4923086703 -5.7673624102 3.2953659987
H -0.8161389944 -4.6198611181 3.5462479361
H 7.4071459604 1.1615368545 -2.0093352916
H 6.9250009794 -0.3464247225 -1.2140140112
H 7.6240555773 0.9730571156 -0.2649803447
