63
CONF444
C 6.4321744577 -1.7813643663 -4.5406910731
C 6.6480236293 -2.5182981711 -3.2223161675
N 5.7180582122 -2.0608209186 -2.1840449386
C 6.0885094926 -0.9097393261 -1.3613177607
C 4.8637225928 -0.0987755748 -1.0166764184
N 3.8774082703 -0.9538479661 -0.3268847010
C 3.6892505776 -2.2354680542 -0.7849904979
O 2.8859861782 -3.0363256322 -0.3219334651
C 4.5488488431 -2.6964483151 -1.9923545297
O 4.1425482399 -3.6413160260 -2.6652253640
C 3.0544472587 -0.2976318988 0.6489907088
O 3.1640819195 0.9115220025 0.8209846924
N 2.2117368494 -1.0815065600 1.3519797393
C 1.2376205306 -0.4518035222 2.2223751945
C 0.3830478474 -1.4974330822 2.9081275400
C -0.3506320932 -2.4167870155 2.1521674187
C -1.1500858397 -3.3621144615 2.7867321112
C -1.2314901261 -3.3904505567 4.1779396313
C -0.5080997360 -2.4709324047 4.9329602714
C 0.2978756689 -1.5276367860 4.3000641530
C 0.3158831205 0.4834924375 1.4072088547
O 0.0524699884 0.2853413636 0.2262856864
N -0.2219311812 1.5028643809 2.1191832713
C -1.1559044329 2.4119624054 1.5312531234
C -2.5131406163 1.9019454545 0.9505029369
N -2.1595963571 2.5461227118 -0.3263072450
C -0.9069699467 2.9636133852 0.1058355341
O -0.0203339132 3.5673506872 -0.4489587152
C -3.1860080347 3.2742546232 -1.0469208783
C -4.5412293725 2.8830464594 -0.3507561075
S -4.0890219364 2.6836023089 1.4591462693
C -5.0230784851 1.5498039721 -0.9254731449
C -5.6259787199 3.9444890205 -0.4802410857
C -2.9373861364 4.7782050404 -0.9794436152
O -3.3436230922 5.3766662053 -2.1126595817
O -2.4701904899 5.3638491421 -0.0300206026
H 6.5644739974 -0.7023030885 -4.4149298747
H 5.4247957042 -1.9686759221 -4.9225037472
H 7.1563382272 -2.1309342713 -5.2823141219
H 6.5009990738 -3.5931615783 -3.3536829700
H 7.6627078622 -2.3528845844 -2.8446958216
H 6.7711424064 -0.2793869423 -1.9378672880
H 6.6115579924 -1.2398831723 -0.4528802942
H 5.1325131079 0.7133185065 -0.3420570389
H 4.4136139601 0.3319317763 -1.9195682640
H 2.0950245739 -2.0461446152 1.0566155900
H 1.7582633656 0.1433125190 2.9811045874
H -0.3022870738 -2.3893187920 1.0670244362
H -1.7137361677 -4.0751112948 2.1933876792
H -1.8568262424 -4.1278231131 4.6712450038
H -0.5661195284 -2.4896392495 6.0166973898
H 0.8672152308 -0.8140803737 4.8888454369
H -1.3191811707 3.2568552003 2.2058819374
H -2.5964636802 0.8133922797 0.8882708450
H -3.2475474682 2.9737283966 -2.0986262226
H -5.9107709507 1.2123354834 -0.3851304460
H -4.2557900583 0.7737915932 -0.8581688392
H -5.2849009047 1.6832236948 -1.9812339351
H -6.5391608853 3.5954829423 0.0093690189
H -5.8518590148 4.1114343683 -1.5382582248
H -5.3316392685 4.8948681861 -0.0262753762
H 0.0407495588 1.6336880075 3.0848592578
H -3.2229423451 6.3371235529 -2.0123302127
