55
CONF53
C 5.3054878208 -2.8386453193 -2.8156934729
O 4.2029215013 -1.9406927896 -2.9953952081
C 3.2611772031 -1.8939834271 -2.0124148327
C 3.2965636862 -2.6591063164 -0.8447811413
C 2.2680624828 -2.5257001524 0.0867704765
C 1.2085637795 -1.6428909903 -0.1147669482
C 1.1838949433 -0.8889673801 -1.2965189494
C 2.1965374447 -1.0102605712 -2.2325399413
C 0.1453319884 -1.5232626665 0.9451173042
S -1.5249905849 -1.7058582459 0.1357739131
C -2.6191438524 -0.8252406212 1.2330420779
C -3.6697493419 -1.5271950014 1.8324347320
C -4.6108928583 -0.8679221118 2.6136424398
C -4.4870048078 0.5015734342 2.8334395175
C -3.4359698149 1.2065287062 2.2608753261
C -2.5033613608 0.5618101274 1.4439370992
N -1.4687502775 1.3344699705 0.8428782789
C -1.8623658479 2.5019557216 0.0328665130
C -2.4064717564 2.0910556514 -1.3337244505
N -1.3999595716 1.4712072147 -2.1934005114
C -0.4636722048 2.4573272591 -2.7313154173
C -2.0341101554 0.7315221932 -3.2835303957
C -0.1425195338 1.0320458193 0.9643928853
O 0.7545887049 1.7186190563 0.4858991396
C 0.1815221216 -0.2282067064 1.7741169586
O 1.5200246683 -0.1388604156 2.2888388017
C 1.7172892055 0.8189521647 3.2308250889
C 3.1578899981 0.8964776985 3.6258489557
O 0.8223234723 1.5166709701 3.6587082865
H 5.8828152568 -2.5789244678 -1.9205218267
H 5.9299892435 -2.7202507844 -3.7014938021
H 4.9596518666 -3.8766119811 -2.7446776402
H 4.1017087452 -3.3567733928 -0.6503875409
H 2.3008913883 -3.1242234534 0.9932150289
H 0.3622433663 -0.2027811570 -1.4885639945
H 2.1792166443 -0.4281842600 -3.1487930801
H 0.2629545470 -2.3475415157 1.6558684680
H -3.7435619651 -2.5976793060 1.6721687024
H -5.4263119675 -1.4255481179 3.0623385286
H -5.1997610833 1.0225886251 3.4641999922
H -3.3283058434 2.2682076619 2.4552286009
H -0.9869340084 3.1462836847 -0.0566660134
H -2.6369384075 3.0595618283 0.5657923183
H -3.2194588641 1.3697833159 -1.1796107314
H -2.8574373149 2.9884982814 -1.8036326623
H -0.9668052718 3.2087332811 -3.3705450363
H 0.2952523472 1.9470466696 -3.3342314416
H 0.0511548004 2.9783332571 -1.9197420629
H -1.2644614507 0.2373863904 -3.8866226612
H -2.6958626431 -0.0387662134 -2.8734354849
H -2.6288951258 1.3823224100 -3.9534974387
H -0.5116287576 -0.3215124609 2.6153302632
H 3.6872249273 1.4810814368 2.8649878562
H 3.2489260592 1.4014769857 4.5870467952
H 3.6111146545 -0.0959286827 3.6609179192
