55
CONF346
C 2.2955571331 1.5767856338 -0.2610971790
C 3.3569099897 1.2522012459 -1.2999784154
N 4.5681053877 0.7321673178 -0.6542714301
C 4.2214592971 -0.4630463412 0.1215517436
C 3.1587683162 -0.1358192264 1.1584346891
N 1.9466686615 0.3808523158 0.5134687635
C 0.9092054431 0.6647005536 1.5095689833
C -0.4861835509 0.8155141684 0.8915451840
C -0.9585643798 -0.4649188800 0.2822969366
C -2.2168259289 -0.9497408060 0.2341026211
C -2.4762362282 -2.2932749948 -0.3235533758
C -1.8041771204 -2.7580742298 -1.4623656850
C -1.9986710528 -4.0491598768 -1.9368083735
C -2.8929745735 -4.9020927989 -1.2908493179
C -3.6030049906 -4.4528520391 -0.1839208267
C -3.3971362434 -3.1559239240 0.2911144160
S -4.2977345793 -2.6519580763 1.7417397964
C -4.3912385629 -0.9025205450 1.4754345518
C -3.3923817290 -0.2262837967 0.7539224956
C -3.5566607411 1.1465905095 0.5365091758
C -4.6376609389 1.8286729933 1.0796766025
C -5.5914875039 1.1550497514 1.8461087024
C -5.4750169620 -0.2128689404 2.0275747949
C -4.7838110688 3.3048771735 0.8833463171
F -4.5103454030 3.9980466789 2.0259184371
F -6.0496243880 3.6500951533 0.5300596985
F -3.9594012607 3.7936153947 -0.0704478809
C 5.6310196273 0.4516520967 -1.6270374116
C 6.3034422804 1.7433808275 -2.0733008588
O 6.7587762182 2.4924769602 -0.9395467147
H 1.4075251974 1.9543460833 -0.7783556974
H 2.6669662482 2.3841171690 0.4020763410
H 2.9509376812 0.5177612154 -2.0232147455
H 3.5988072186 2.1662578176 -1.8521846302
H 3.8502171720 -1.2729851318 -0.5371220338
H 5.1207299294 -0.8290965437 0.6299666211
H 2.9047119759 -1.0474343115 1.7117353375
H 3.5718591998 0.5953856584 1.8823906731
H 0.8877385996 -0.1714551508 2.2196959910
H 1.1480290114 1.5763885680 2.0898197246
H -0.4679396839 1.6158221281 0.1389591784
H -1.1807280881 1.1569573565 1.6680006798
H -0.1678580466 -1.0975887322 -0.1169417451
H -1.1216621344 -2.0878779303 -1.9756786297
H -1.4608092028 -4.3872160742 -2.8165794346
H -3.0553626552 -5.9097963782 -1.6592676581
H -4.3186623226 -5.1030047833 0.3100047690
H -2.8329244850 1.6738041075 -0.0722338456
H -6.4338178698 1.6886373901 2.2737244674
H -6.2320049115 -0.7519779066 2.5878408313
H 5.2561919062 -0.0999858153 -2.5097846632
H 6.3801691081 -0.1789196529 -1.1328257518
H 7.1782772175 1.5065995192 -2.6873967312
H 5.6210008540 2.3525789524 -2.6845533634
H 6.0578325456 2.3805381411 -0.2759773318
