42
CONF124
C -6.6496889671 1.2273780026 1.6297456837
C -5.2827606322 1.3392919204 2.2995376306
C -4.1954155424 0.5376204399 1.6209180162
O -4.5400867770 -0.8377692269 1.5456439305
C -3.6875705722 -1.3567498610 0.5192780749
C -3.5751012959 -0.1908565030 -0.4855476862
O -4.0220620379 0.9562452800 0.2614238777
C -2.1870571618 0.0215144513 -1.0513951886
O -1.2862039014 0.2304474503 0.0425608127
C 0.0316776427 0.4376284221 -0.2408138324
C 0.8615339778 0.6414452746 0.8684612649
C 2.2192718384 0.8606940998 0.6909749752
C 2.7468800270 0.8800461892 -0.5965342888
C 1.9349031643 0.6808356605 -1.7016514510
C 0.5685439456 0.4582927121 -1.5310149001
O 4.1008361487 1.1633536734 -0.7762346821
C 4.9823257301 0.1046286485 -0.8288371194
C 6.3227245861 0.4416583300 -1.0280999289
C 7.2784341781 -0.5646584523 -1.0922192535
C 6.9093753528 -1.9041479220 -0.9593078289
C 5.5697218149 -2.2246617489 -0.7607441436
C 4.5959966307 -1.2282698510 -0.6936353030
H -7.0099749264 0.1953414885 1.6374873407
H -6.6064598973 1.5657472628 0.5908381124
H -7.3806540890 1.8459370922 2.1582735423
H -5.3312022332 1.0030293599 3.3417233551
H -4.9472803403 2.3823913351 2.3232339396
H -3.2311860400 0.6420833690 2.1504567181
H -2.7041142083 -1.6187924242 0.9319477903
H -4.1594484000 -2.2418204830 0.0889376434
H -4.2589121490 -0.3305217917 -1.3323836127
H -2.1836276096 0.8958502620 -1.7151829925
H -1.8924826196 -0.8658709264 -1.6309515431
H 0.4263005710 0.6264137310 1.8623808272
H 2.8720558270 1.0182620754 1.5436465255
H 2.3662849668 0.6985036436 -2.6975061320
H -0.0544283017 0.3071808887 -2.4037484952
H 6.5971636500 1.4867014994 -1.1299817890
H 8.3197217285 -0.2991311661 -1.2475636798
H 7.6590061014 -2.6867130920 -1.0100508300
H 5.2679373139 -3.2623794193 -0.6552110902
H 3.5550237023 -1.4881277852 -0.5388541843
