59
CONF5
C 7.1403772028 2.6740645475 -1.7537032249
C 5.9452361471 2.3139692970 -0.8741786147
C 5.2811565593 1.0020937512 -1.2904090308
C 4.0777688978 0.6361853350 -0.4235683843
C 3.4230713467 -0.6779050612 -0.8490431536
C 2.2261123197 -1.0616615084 0.0166980373
C 1.1159563334 -0.0545049347 -0.0709811323
C 0.4056490303 0.3556669830 0.9793297905
C -0.6608986846 1.4031991644 0.9761105532
C -0.3289358105 2.5025607741 2.0336298678
C -1.1338020489 2.0575788672 3.2617960716
C -2.4696673722 1.6162258146 2.6649602859
C -2.0645434147 0.8415753187 1.3937268526
C -3.1186848668 0.9028422515 0.2784290866
C -2.8052647022 0.0008851235 -0.8732126799
C -3.6529785088 -0.8747423921 -1.4142183179
C -3.3186400480 -1.7682209609 -2.5674822035
C -3.3761556976 -3.2657205698 -2.2056226637
C -2.6559138032 -3.6073424130 -0.9034499507
C -1.2088410238 -3.1877203144 -0.8701679057
O -0.5413138800 -2.9399102197 -1.8627492168
O -0.7243417484 -3.1455876838 0.3770383203
O -3.2606915040 2.7640851646 2.2715190393
O -0.6892585627 3.8069659477 1.5936540416
O 1.7719816353 -2.3948379071 -0.3347331834
H 6.8374110915 2.7824431711 -2.8007345146
H 7.9083701585 1.8942562464 -1.7103679786
H 7.6009799264 3.6155148637 -1.4396096842
H 5.2024169143 3.1215304484 -0.9105517784
H 6.2659009534 2.2397240283 0.1732700667
H 6.0214899642 0.1908119154 -1.2504112342
H 4.9635404826 1.0739456144 -2.3401352283
H 3.3391039952 1.4475246359 -0.4618642820
H 4.3927784955 0.5602615482 0.6268599405
H 4.1525133647 -1.4952591422 -0.8039663595
H 3.0904487375 -0.6056914796 -1.8950911747
H 2.5453290580 -1.1547990028 1.0621751421
H 0.9037791387 0.3517634897 -1.0622231967
H 0.6358474149 -0.0804037688 1.9556166401
H -0.7034641015 1.8774289939 -0.0102684297
H 0.7472466184 2.5460962757 2.2297365397
H -0.6501122630 1.1923700636 3.7338168976
H -1.2229346232 2.8479724978 4.0146641502
H -3.0641167517 0.9875843344 3.3421682496
H -1.9416157458 -0.2090968940 1.6876858378
H -3.1835761304 1.9410899268 -0.0720533451
H -4.1045701364 0.6527724046 0.6879024495
H -1.8058556966 0.0841920023 -1.3036106004
H -4.6532035104 -0.9749960141 -0.9855159841
H -4.0184533158 -1.5895755563 -3.3947502401
H -2.3169188784 -1.5254922264 -2.9326543400
H -4.4213037557 -3.5818572608 -2.1024702794
H -2.9461982743 -3.8428202786 -3.0307775719
H -2.6713159437 -4.6918323794 -0.7305262302
H -3.1542200135 -3.1553018478 -0.0402497178
H 0.2322345531 -2.8747140695 0.3138083054
H -3.4969925103 3.2410632952 3.0753721827
H -1.6568182523 3.8208296459 1.5376491067
H 1.3401796360 -2.3673572603 -1.2090893489
