33
CONF23
O -3.5245409296 3.1499558197 -2.6693689350
C -3.2244878141 2.1141404450 -1.8507694430
C -4.2236512365 1.3659042548 -1.2233149953
C -3.8502979980 0.3159292632 -0.3966041082
O -4.8047033797 -0.4238369842 0.1878312971
C -2.4772256283 0.0053432374 -0.1805148015
C -2.0910196428 -1.1558063632 0.5709747778
O -2.9183265359 -1.9070189216 1.1279622327
C -0.6160426313 -1.4562750539 0.6141652381
C 0.1987213864 -0.1723987037 0.5293591674
O -0.1762343720 0.5723094259 -0.6725442655
C -1.5022456500 0.8065273885 -0.8283879777
C -1.8637019046 1.8498234234 -1.6616961138
C 1.6795585406 -0.4056711243 0.4717203248
C 2.2558199917 -1.0829831857 -0.6034685367
C 3.6270624246 -1.3147668987 -0.6347477099
C 4.4344822147 -0.8831520804 0.4117082541
O 5.7760820316 -1.1251838792 0.3659546340
C 3.8585788733 -0.2042165373 1.4953747526
O 4.7263169645 0.1886292380 2.4792499085
C 2.4909945587 0.0382097709 1.5181372466
H -4.4843290456 3.2624025799 -2.7198527077
H -5.2746775510 1.5863541705 -1.3795121173
H -4.3258041268 -1.1405167618 0.6925688070
H -0.3759619385 -1.9989866697 1.5325473785
H -0.3757097968 -2.1104857965 -0.2353409378
H -0.0436244656 0.4674438855 1.3891729961
H -1.1104135519 2.4621287861 -2.1423851875
H 1.6378067552 -1.4253282343 -1.4270574308
H 4.0876949385 -1.8348077660 -1.4685864589
H 6.1856666845 -0.7601150538 1.1637944390
H 4.2454674462 0.6420188647 3.1838246020
H 2.0587462829 0.5744287620 2.3598054802
