40
CONF20
C -6.2319957991 0.7186632415 2.5249534106
N -5.0509020301 -0.1505313912 2.5521414150
C -4.0041967083 0.3394458429 1.6498428915
C -2.8235316342 -0.6241555260 1.6346573228
C -1.6547182094 -0.1124260115 0.7959557283
O -0.6269678728 -1.1247604806 0.9433505514
C 0.6297892436 -0.8637235114 0.5008027744
C 1.5350705588 -1.9285291391 0.6178348776
C 2.8481857370 -1.7717312648 0.2159771498
C 3.2781899467 -0.5488552090 -0.3095413496
C 2.3795819095 0.5059755803 -0.4316336107
C 1.0560006017 0.3582219136 -0.0287838630
C 4.6879822379 -0.4142203124 -0.7785646049
F 4.8932311830 -1.0255011167 -1.9836626980
F 5.5734546718 -0.9854070632 0.0810283284
F 5.0686639275 0.8755749522 -0.9371840443
C -2.0186892036 0.0903260771 -0.6566522348
C -2.1609055145 -1.0066429337 -1.5086738673
C -2.5355069541 -0.8196635466 -2.8361580727
C -2.7779051962 0.4641742412 -3.3220826875
C -2.6394560396 1.5614478300 -2.4751240439
C -2.2566664219 1.3738735106 -1.1494617211
H -6.6373471705 0.8791160833 1.5101093423
H -5.9723827839 1.6996559956 2.9395657185
H -7.0217988461 0.2877851836 3.1480764091
H -3.6742833662 1.3241454109 2.0116700885
H -4.3788450630 0.4895033842 0.6204663033
H -2.4677050819 -0.7821594148 2.6588777788
H -3.1383746024 -1.5965634827 1.2333495235
H -1.2897894349 0.8317989622 1.2236001431
H 1.1874455133 -2.8693896438 1.0308948166
H 3.5421806748 -2.6004497086 0.3123062639
H 2.7031821658 1.4561896677 -0.8416141220
H 0.3774990907 1.1936280974 -0.1385996388
H -1.9700805266 -2.0072543912 -1.1320945901
H -2.6385187415 -1.6776838668 -3.4933955475
H -3.0690851124 0.6085607246 -4.3577929519
H -2.8216595498 2.5645454960 -2.8482035028
H -2.1396420115 2.2310328116 -0.4906011003
H -5.3288448462 -1.0758765141 2.2365016040
