48
CONF42
C -3.9996233721 -1.8878516833 -2.0295945391
C -3.8867338432 -0.8921244186 -0.8844808559
C -2.4305243550 -0.4761696467 -0.6815782674
N -2.3254124633 0.5030629735 0.4052904506
C -3.1815346381 1.6841278695 0.1525290681
C -4.6205267333 1.2448552730 -0.0494615551
N -4.6853875534 0.3062493005 -1.1749203723
C -1.0730740329 0.7248729692 0.9488032501
C -0.9295793312 1.4121888249 2.1848693759
C 0.2760135367 1.6268099182 2.7865049971
C 1.4548473439 1.1401109514 2.1952897737
C 1.3427821666 0.4285346063 0.9838782220
C 0.1023712388 0.2324065939 0.3738112618
N 2.5089329769 -0.0673606982 0.3898683002
C 3.7124300506 0.1076947898 0.9717099646
C 3.8776536251 0.7706545375 2.1610450362
C 2.7382380607 1.3380343871 2.8381476262
O 2.8471438144 1.9702815271 3.9249913558
C 5.2516480653 0.8949987345 2.7084589075
O 6.2373060107 0.4241372140 2.1635926866
O 5.3413165209 1.5670757364 3.8583468838
C 2.4459241246 -0.7642003214 -0.8620101179
C 2.3199484419 -0.0435983497 -2.0468111546
C 2.2595961894 -0.6659371076 -3.2800007435
C 2.3360849158 -2.0504100978 -3.2856450786
C 2.4660871788 -2.8122927236 -2.1350092086
C 2.5160901450 -2.1518914768 -0.9132881247
F 2.2796633512 -2.6804899490 -4.4760991741
F 2.2486512755 1.2969387167 -1.9844621204
F -2.0481665840 1.8168914018 2.8312601294
H -3.6308971797 -1.4454439448 -2.9609602555
H -3.4194654653 -2.7905110424 -1.8152453193
H -5.0435354457 -2.1822230069 -2.1776927179
H -4.2229148356 -1.3758501917 0.0533197741
H -1.8480778516 -1.3640800023 -0.4159131724
H -2.0359524036 -0.0663168469 -1.6290094746
H -2.8209405991 2.1972838087 -0.7546909105
H -3.1191333450 2.3797342235 0.9884966118
H -4.9921287955 0.8026329859 0.8932672342
H -5.2300089182 2.1262097894 -0.2764864982
H -5.6509157576 0.0255129938 -1.3190156629
H 0.3260354339 2.1397729715 3.7402573154
H 0.0530809186 -0.2960635368 -0.5681292814
H 4.5632953984 -0.3061205647 0.4410982354
H 4.3963220326 1.8546209512 4.1067793518
H 2.1620143022 -0.0945966407 -4.1955264082
H 2.5222086498 -3.8924106530 -2.1980513468
H 2.6088464225 -2.7097513316 0.0124657484
