52
CONF98
C 1.2793456877 -2.3147660560 -1.9882560445
C 1.5673304138 -0.8700925652 -1.6480267704
C 2.7774648434 -0.3038064558 -2.3935245823
C 3.0598323132 1.1280171562 -1.9451773736
C 3.1796845713 1.2147642023 -0.4154945757
C 2.0888037472 0.4327729045 0.3183918927
O 1.8441391049 -0.8340872649 -0.2197286702
O 0.8951132468 1.2554757542 0.3265335988
C -0.0302152702 0.8422610146 1.2525571773
C -1.2057410772 0.2710506891 0.8477027497
O -2.1206347526 -0.1831960583 1.7497075931
C -1.8949101437 -0.0855772893 3.0932866514
C -2.8659859868 -0.6126817892 3.9265440468
C -2.6635649823 -0.4994916652 5.3024193543
C -1.5287290293 0.1240118031 5.8370653727
C -0.5710583480 0.6431494507 4.9795017270
C -0.7364056572 0.5439457037 3.5711740333
C 0.2522398194 1.0518823532 2.6563028362
O 1.3024858265 1.6266832309 3.0514631128
O 0.5240842266 1.2378946153 5.4818399809
O -3.6250343572 -1.0230060525 6.1006905585
C -1.6450492189 0.0719135732 -0.5294520439
C -2.2686755207 -1.1336074636 -0.8846886696
C -2.6717875638 -1.3493464956 -2.1912426154
C -2.4746530502 -0.3464478419 -3.1576818305
C -1.8822120076 0.8597365736 -2.7993965223
C -1.4631628275 1.0703119299 -1.4917904674
O -2.8994941331 -0.6474934326 -4.4156086250
O -3.2486230818 -2.5387975522 -2.5225424411
O 4.4064734148 0.6165376915 0.0150458824
O 1.9826836324 1.9309129992 -2.4406734680
O 2.5867524447 -0.3556327290 -3.8068222082
H 0.4306516979 -2.6760276104 -1.4003696156
H 1.0304950960 -2.4052046131 -3.0480984410
H 2.1523003204 -2.9414334993 -1.7760521602
H 0.6882975915 -0.2471351761 -1.8554702222
H 3.6516947921 -0.9245375081 -2.1661096729
H 4.0115758818 1.4608546412 -2.3873951189
H 3.1232106245 2.2675976110 -0.1036223986
H 2.4086562149 0.2548013241 1.3494987564
H -3.7513482899 -1.0904738737 3.5255743211
H -1.3915914093 0.2022198921 6.9110805695
H 1.0636645121 1.5227462830 4.6875015858
H -3.3881516105 -0.8943986013 7.0300722570
H -2.4176123235 -1.9202599473 -0.1527779287
H -1.7484174737 1.6323222596 -3.5515133099
H -0.9994993528 2.0102328342 -1.2206894329
H -2.7310306728 0.0957356079 -5.0111424596
H -3.4668674329 -2.5303285899 -3.4662273766
H 5.1336609033 1.1219259820 -0.3711089675
H 2.2513049339 2.8569017657 -2.3995489150
H 1.9985090562 0.3811695913 -4.0297431532
