41
CONF12
C 3.3334959300 0.9371651734 0.9289546548
C 2.7887112301 1.1715568929 -0.4380780525
N 1.8421726165 0.3278549880 -0.8693470297
C 1.3751561984 0.5725217833 -2.1007368675
N 1.7857187883 1.5514543431 -2.9107426965
C 2.7422622057 2.3160636704 -2.3779100977
N 3.2775739943 2.1878218226 -1.1563652979
O 3.1648208922 3.2869988165 -3.1806730328
C 4.2031272419 4.1703652978 -2.6850774149
N 0.3765806805 -0.2301829613 -2.6124073967
C -0.3360045472 -1.2885186745 -2.0407415143
O -1.2739441251 -1.7890965366 -2.6401936126
N 0.1131680183 -1.7034198256 -0.8056034065
S -0.7847158945 -2.7806698026 0.1565818974
O -0.0701397995 -2.7812638438 1.4394215445
O -0.9672055319 -4.0296796495 -0.5838393799
C -2.3971202255 -2.0218298083 0.3914456898
C -3.4665010302 -2.5478636701 -0.3234540000
C -4.7473755490 -2.0551298051 -0.0928443325
C -4.9500663742 -1.0647337932 0.8617184218
C -3.8756938113 -0.5555441448 1.5855308194
C -2.5805739585 -1.0169857382 1.3499823336
C -1.4476793287 -0.3502524079 2.0649261540
O -0.5289789195 0.2101735173 1.5029277896
O -1.6186842602 -0.3949979962 3.3890762452
C -0.5965365368 0.2818723915 4.1707726276
H 3.9330101179 1.7850249891 1.2591150166
H 3.9615035560 0.0387783556 0.9138430019
H 2.5156062524 0.7480884221 1.6295015208
H 5.1076087144 3.6021753318 -2.4583566944
H 3.8576935275 4.6975930490 -1.7934516057
H 4.3819619444 4.8693905917 -3.5008652722
H 0.0460944218 0.0245458056 -3.5347746191
H 0.7849978885 -1.0827389017 -0.3215524089
H -3.2961313379 -3.3394450368 -1.0427241458
H -5.5841248104 -2.4573720456 -0.6534431953
H -5.9492411673 -0.6867943087 1.0506909341
H -4.0340463547 0.2176044570 2.3296924579
H -0.8923257186 0.1421070494 5.2090470463
H -0.5711867722 1.3424865943 3.9115628605
H 0.3770113417 -0.1744840691 3.9783911527
