37
CONF5
C -3.1179314804 2.0071473553 -1.4153481986
N -2.6745026870 0.7337313373 -0.8786903139
C -1.7466081494 0.6637342097 0.1056092433
O -1.1350930071 1.6303274148 0.5466146037
C -1.4903103013 -0.7215883271 0.6595298673
N -2.4644893873 -1.5537202549 0.5474460069
O -2.1908714064 -2.8018591795 1.0887397131
C -3.3233605905 -3.6540897112 0.8842056757
C -0.1986575811 -0.9465560105 1.3283751573
C -0.1080500394 -1.4229474548 2.6387283053
C 1.1248221206 -1.5379654211 3.2656324369
C 2.2867807579 -1.1908185001 2.5788185667
C 2.2218669495 -0.7336682421 1.2688784086
C 0.9800450842 -0.6149214860 0.6523836230
O 0.8526098757 -0.2745610982 -0.6749903485
C 1.6681319214 0.7192432247 -1.1908466423
C 1.8848219230 1.9113861617 -0.5055618051
C 2.6665749200 2.8930082845 -1.1040732580
C 3.2141006175 2.6940293453 -2.3697904858
C 2.9738178041 1.5004305525 -3.0443888067
C 2.2009112716 0.5039450638 -2.4564032658
H -3.4289407782 1.8789213935 -2.4555404163
H -3.9541369656 2.4283840375 -0.8415787890
H -2.2846795913 2.7116608992 -1.3730696455
H -3.1902494243 -0.1080568148 -1.0827404971
H -4.2101910537 -3.2504014488 1.3848074459
H -3.0456682659 -4.6119650100 1.3282392298
H -3.5253132025 -3.7823408493 -0.1849952088
H -1.0184957260 -1.6769830939 3.1687769436
H 1.1808360790 -1.8944628334 4.2883123248
H 3.2539137470 -1.2866666377 3.0618459365
H 3.1202272706 -0.4743058617 0.7196186867
H 1.4234579537 2.0641424771 0.4632770176
H 2.8364759696 3.8279128061 -0.5795614301
H 3.8201806857 3.4675695057 -2.8291735232
H 3.3938556588 1.3378470090 -4.0318615941
H 2.0041187313 -0.4355433400 -2.9612249850
