54
CONF54
C -5.7343375804 2.9375183490 -0.7845819018
C -4.5459670905 1.9941583583 -0.9177335672
C -4.7296916069 0.6322379094 -0.1506911781
N -3.3864682343 0.1862334810 0.1685883384
C -2.2659411818 1.1260376058 -0.0125555514
S -3.0446971719 2.7798361980 -0.1100680358
C -1.6783544547 0.6132059860 1.3398291912
C -2.8796151660 -0.3626848871 1.3377191282
O -3.2863212739 -1.2394881949 2.0637643142
N -0.3440241297 0.1041111712 1.4141954529
C 0.0373675642 -0.9891625869 0.7186487553
O -0.7224291538 -1.6067655385 -0.0237285096
C 1.4912138310 -1.4506631767 0.8931036974
C 2.2656663048 -0.8127761977 2.0300747018
C 2.3435691854 -1.4683344363 3.2612492867
C 3.0184801187 -0.8815209190 4.3274776603
C 3.6249723998 0.3632810162 4.1726284372
C 3.5532452721 1.0202181547 2.9466272403
C 2.8769096545 0.4360351356 1.8790769385
C 2.2183033516 -1.2357092304 -0.4239531477
O 1.9118547192 -0.4419198282 -1.2797548296
O 3.3081461285 -2.0428771250 -0.4825908090
C 4.1619610256 -1.8783134979 -1.5913233349
C 5.2045135026 -0.9697502793 -1.4960108762
C 6.0833422245 -0.8528516763 -2.5704989485
C 5.9072154005 -1.6360318591 -3.7098964886
C 4.8498169950 -2.5412218917 -3.7790585143
C 3.9630166732 -2.6687530913 -2.7120114732
C -5.5596028543 0.8123940079 1.1167442107
O -5.1294829510 1.2035141506 2.1781407305
O -6.8476103252 0.5109915319 0.8861929693
C -4.2594665002 1.6952477793 -2.3902233062
H -5.9305934750 3.2124933724 0.2555094604
H -6.6278712627 2.4614118631 -1.2005311674
H -5.5412544456 3.8503641319 -1.3544216403
H -5.2504539247 -0.0633867799 -0.8177283313
H -1.6445451639 0.9112206228 -0.8861571078
H -1.8292245765 1.3525082129 2.1313932466
H 0.3206276629 0.5623631509 2.0214663368
H 1.4349578264 -2.5305283132 1.0670508000
H 1.8732047056 -2.4399542032 3.3819816709
H 3.0732905725 -1.3998079412 5.2796556181
H 4.1535253977 0.8184712877 5.0041240584
H 4.0260466538 1.9886071839 2.8178194952
H 2.8238141745 0.9573567360 0.9267328602
H 5.3212746922 -0.3714189632 -0.5981252443
H 6.9068331888 -0.1483286467 -2.5138474990
H 6.5953745640 -1.5420768961 -4.5435733456
H 4.7117192883 -3.1526230428 -4.6649578390
H 3.1330987331 -3.3668950647 -2.7432580119
H -7.3584485771 0.6943085031 1.6944744121
H -5.1450476332 1.2375342645 -2.8452341260
H -3.4174917494 1.0084348086 -2.5129573183
H -4.0344220424 2.6237482734 -2.9205124150
