51
CONF115
C -0.7168887772 0.3111249069 2.7585769409
C -1.2650883699 1.2007036905 1.6813129504
C -2.5505552148 1.1349691403 1.3031718663
C -3.1720187507 2.0059820036 0.2774658319
C -3.0779146057 1.6771399572 -1.2422583964
C -4.3988064822 1.6177122053 -0.4848887962
C -5.0780613893 0.2945439060 -0.2150632600
C -5.3688823214 2.7280267298 -0.8350417963
C -2.2917504989 0.5040522434 -1.6479886088
O -2.3503065088 -0.6237202401 -1.1926479434
O -1.4069193690 0.8597185578 -2.6194045728
C -0.4330237880 -0.1624108258 -3.0127835854
C 0.6861017611 -0.2464754783 -2.0348692623
C 0.7809947284 -1.0594789804 -0.8542577395
C 1.9694816421 -0.7634408831 -0.2637908913
O 2.6293122910 0.1874680248 -1.0091989763
C 1.8335920899 0.4857196694 -2.0784819440
C 2.6667075271 -1.2509132521 0.9546876786
C 3.9790103379 -1.9395491520 0.6352777441
C 5.1982163720 -1.3469953150 0.9653915410
C 6.4017382804 -1.9774682349 0.6510718591
C 6.3965190103 -3.2090332131 0.0016320031
C 5.1813182216 -3.8073523975 -0.3321160415
C 3.9820712403 -3.1750030358 -0.0191119941
C -0.2681661579 2.1287035793 1.0520605849
H -0.2834130480 0.9068776393 3.5719543616
H 0.0961301086 -0.3104087983 2.3608538351
H -1.4852876957 -0.3447951559 3.1761614749
H -3.1956969458 0.4068758387 1.7917738974
H -3.0522186540 3.0751899124 0.4457705087
H -2.9351646460 2.5425046659 -1.8808573699
H -4.3720815116 -0.4940028073 0.0398391077
H -5.7895967455 0.4157656979 0.6098066110
H -5.6404177779 -0.0231466070 -1.0999456478
H -4.8475018045 3.6714968774 -1.0214190172
H -5.9446970268 2.4678816589 -1.7301591576
H -6.0736511485 2.8826510917 -0.0101984134
H -0.0762252285 0.1796729828 -3.9854416356
H -0.9456644073 -1.1207580734 -3.1220155202
H 0.0486340312 -1.7652582320 -0.4929583948
H 2.2173417556 1.2207299755 -2.7702190412
H 1.9887638203 -1.9459872521 1.4604185338
H 2.8488169827 -0.4133364796 1.6393014987
H 5.2056357668 -0.3862046665 1.4732284901
H 7.3429911617 -1.5048099697 0.9153156854
H 7.3324510854 -3.7020160870 -0.2423493119
H 5.1691912304 -4.7692826259 -0.8358330462
H 3.0363576506 -3.6422049851 -0.2828145627
H 0.1556507048 2.8073633090 1.8030379822
H -0.6979435098 2.7233134564 0.2435084216
H 0.5709145991 1.5478647264 0.6462007183
