54
CONF5
C -4.9503951395 -1.9786188067 1.6593210899
C -3.9975835135 -2.4035523260 2.7753507248
C -3.3578826640 -1.1581115620 3.4808793287
N -2.2951447673 -0.7147977132 2.5939118972
C -1.4708726421 -1.7739053452 1.9982475693
S -2.5019809928 -3.2993292146 2.0610325949
C -1.4137180494 -0.9199373536 0.6816330797
C -2.2673240310 0.0883855295 1.4756310539
O -2.8006769954 1.1547549232 1.2289705759
N -0.1787355210 -0.4988667734 0.1022225962
C 0.6749369604 0.3022713174 0.7954326010
O 0.4899925251 0.6056054718 1.9636753822
C 1.8762452710 0.8708741041 0.0350320472
C 1.5985566567 2.3010550316 -0.4395492168
C 0.3026359864 2.7573185818 -0.6762848623
C 0.0944305695 4.0530693371 -1.1391798489
C 1.1736714462 4.8970585110 -1.3774955385
C 2.4685344284 4.4433429697 -1.1428273682
C 2.6808732661 3.1516556663 -0.6750122058
C 2.3295861778 0.0936468040 -1.1875179977
O 1.6166758870 -0.4541232031 -1.9963061004
O 3.6834765311 0.1504979296 -1.2871000929
C 4.2757350622 -0.3350473277 -2.4671573672
C 5.1435965658 -1.4082019164 -2.3562769330
C 5.8000577490 -1.8552967240 -3.4996174870
C 5.5800373248 -1.2309208466 -4.7233872888
C 4.7028638786 -0.1522554287 -4.8074349835
C 4.0423247253 0.3072443541 -3.6734156620
C -4.4290780662 -0.1360314168 3.8997798924
O -5.1714995514 -0.4349051758 4.8048595746
O -4.5399741569 1.0266593315 3.2626826110
C -4.6853109682 -3.3375819267 3.7629785964
H -5.2809204588 -2.8532982740 1.0941095458
H -4.4785021627 -1.2851626265 0.9570451459
H -5.8338999947 -1.4888779855 2.0857785420
H -2.8995233380 -1.4969938906 4.4172386496
H -0.5071308239 -1.9299163469 2.4891847351
H -2.0354742806 -1.3851681330 -0.0888476106
H 0.0322756828 -0.6922899585 -0.8705202553
H 2.6982543611 0.9047790803 0.7542296334
H -0.5532319755 2.1192132530 -0.4812155781
H -0.9192590963 4.4021744369 -1.3060961195
H 1.0068252022 5.9070927717 -1.7370730958
H 3.3164958886 5.0979598058 -1.3164046399
H 3.6911708099 2.7997974511 -0.4890205183
H 5.2992323258 -1.8770305913 -1.3910455330
H 6.4845713364 -2.6940676024 -3.4299215828
H 6.0928168589 -1.5829838750 -5.6119856388
H 4.5308622876 0.3372153625 -5.7602093581
H 3.3560846479 1.1459138957 -3.7184089928
H -3.8876403796 1.1642320559 2.5266854852
H -5.0364884827 -4.2382268380 3.2506484857
H -5.5455823872 -2.8297022149 4.2068581988
H -4.0049906885 -3.6366175574 4.5641767119
