29
CONF78
C 2.4615932493 0.0366574977 -1.7925931141
C 2.7447434219 -0.0681171775 -0.3206013072
C 1.8909605285 0.3033003877 0.6443153513
C 0.5114940850 0.8693926341 0.4704891225
C -0.5619600601 -0.2151300670 0.6516731705
C -2.0127362835 0.2527060726 0.4012474374
C -2.4129084157 1.4136825548 1.3122690600
C -2.9321886284 -0.9185117143 0.6592024408
C -3.7746833194 -1.4558209427 -0.2192715818
O -2.1489540669 0.7463227799 -0.9421284487
C 4.0936381820 -0.6446344556 0.0122246837
H 2.5415457399 -0.9527182127 -2.2606373726
H 3.2106863207 0.6718657965 -2.2823368598
H 1.4708432200 0.4373476487 -2.0138172581
H 2.2053706501 0.1512075860 1.6781190985
H 0.3909303001 1.3325734336 -0.5127424521
H 0.3594688316 1.6589012874 1.2158731384
H -0.4969466759 -0.6350429431 1.6633557093
H -0.3539266227 -1.0402730523 -0.0438496925
H -1.7910764998 2.2904671746 1.1141386927
H -2.2962971163 1.1291007990 2.3616865339
H -3.4591110264 1.6798100544 1.1358660396
H -2.8623874762 -1.3318204133 1.6656420388
H -3.8745704331 -1.0637812463 -1.2275877977
H -4.3956651820 -2.3045751123 0.0505504066
H -1.8577657157 0.0471927670 -1.5435657501
H 4.8937485459 -0.0371811751 -0.4300895435
H 4.1996375722 -1.6525487915 -0.4092042593
H 4.2565153772 -0.7003731756 1.0918748165
