22
CONF241
C 2.2143323112 -0.4334144533 0.1319501070
C 1.1947429842 -0.4729855605 -0.9874403509
C -0.2602735507 -0.5580147311 -0.5048297651
C -0.6815181445 0.6194166512 0.3672967442
C -2.0993189607 0.4515174282 0.9002454968
O -2.5187894144 1.6329400608 1.5995259457
O -0.5890217702 1.8038971562 -0.4370214982
O -1.1192804350 -0.6811789677 -1.6510699494
O 1.4816768993 -1.6083449723 -1.8165948110
O 1.9428611212 -1.4871905935 1.0651710776
H 2.1685260832 0.5487993095 0.6231981524
H 3.2143981962 -0.5468887957 -0.3091905152
H 1.3162404056 0.4539667337 -1.5711368972
H -0.3851267742 -1.4840723034 0.0658065628
H 0.0060768022 0.6908844678 1.2258959109
H -2.7999803838 0.3271767650 0.0698486956
H -2.1492944843 -0.4358138676 1.5460365990
H -2.0104841503 1.6880492206 2.4197309139
H -1.1284771247 2.4755192428 0.0056019147
H -1.1732280595 0.2009404755 -2.0490471310
H 0.7259885756 -1.6988669192 -2.4149452335
H 2.6499506938 -1.4863361407 1.7209680468
