71
CONF11
C 4.3861934324 0.4982124916 1.2749890452
O 3.7394509390 0.3940203558 0.0035109965
C 3.0670297021 -0.7640507484 -0.2547764287
C 2.3657341889 -0.8042282190 -1.4833144916
O 2.4586055460 0.3207523117 -2.2481626272
C 1.6240270902 0.3913299316 -3.4082637797
C 1.6568284270 -1.9466372252 -1.8338719295
C 1.6270006278 -3.0710870741 -0.9937555539
C 0.8027327559 -4.2700197475 -1.3832403325
C -0.7042623180 -4.0144693650 -1.2207342038
N -1.0827188272 -3.8040790303 0.1817875322
C -1.3415170683 -5.0836630038 0.8409097510
C -2.2315172501 -2.9058718743 0.3301118206
C -1.9012502363 -1.4541580843 -0.0177757509
C -3.0028415703 -0.5186951605 0.4709467150
C -2.8638797034 0.9469180524 -0.0350259453
C -3.1859923571 0.9308745617 -1.4629529697
N -3.4814133170 0.8927421075 -2.5807221223
C -3.9009999778 1.8852338860 0.6907862348
C -5.3436040122 1.3956536322 0.5575536851
C -3.7816703115 3.3329753566 0.2169270482
C -1.4458280198 1.4843134334 0.1748950046
C -0.8916918305 1.4114222052 1.4618240274
C 0.3661905969 1.9361174232 1.7256420205
O 0.9852057679 1.8948968041 2.9376075718
C 0.3015182110 1.2227851684 4.0016140219
C 1.0968124494 2.5717732069 0.6921692403
O 2.3036041904 3.0836949469 1.0524530512
C 3.0851448430 3.6920126059 0.0169495675
C 0.5494592980 2.6282905825 -0.5813887930
C -0.7129037648 2.0836756487 -0.8373592102
C 2.3206139702 -3.0190761674 0.2076866300
C 3.0351262998 -1.8745762622 0.5794747552
H 4.8251161408 1.4957619093 1.3032113331
H 5.1762580781 -0.2556729266 1.3797486495
H 3.6628184376 0.3936493265 2.0927623563
H 1.7785777120 1.3880553295 -3.8235052797
H 1.9096314931 -0.3638185932 -4.1505969823
H 0.5683281583 0.2638096932 -3.1381406589
H 1.1163388632 -1.9793382006 -2.7738246533
H 1.1025701843 -5.1357487807 -0.7827853888
H 0.9878345166 -4.5288223110 -2.4334496833
H -0.9590699619 -3.1214768643 -1.7996279459
H -1.2730143256 -4.8535785611 -1.6643855591
H -1.5149199241 -4.9252269408 1.9107192964
H -2.2217195895 -5.6074030223 0.4196846224
H -0.4748821690 -5.7439274920 0.7345893963
H -2.5396971648 -2.9463155877 1.3835620778
H -3.1035098453 -3.2457960455 -0.2659972081
H -1.7753077771 -1.3305351590 -1.1006056435
H -0.9442462587 -1.1885362091 0.4450878524
H -3.9759651679 -0.9034612660 0.1494761035
H -3.0204204680 -0.4933473427 1.5669423026
H -3.6115803210 1.8382899909 1.7484106950
H -5.6461626322 1.3478341537 -0.4950819586
H -6.0118990022 2.0991976733 1.0630050573
H -5.4959382522 0.4115900099 1.0066603670
H -2.7695315703 3.7213399803 0.3560124723
H -4.4735903521 3.9645477243 0.7817363738
H -4.0404960611 3.4192995390 -0.8452113453
H -1.4486148517 0.9348246891 2.2589815491
H -0.6464160636 1.7208484773 4.2382268246
H 0.1140157917 0.1727697547 3.7462221886
H 0.9691885540 1.2785376290 4.8617570195
H 3.3086915216 2.9688719480 -0.7750236086
H 4.0104899264 4.0128575356 0.4966284049
H 2.5679460350 4.5626762973 -0.4039686691
H 1.0962676581 3.0921110895 -1.3926582761
H -1.1149140251 2.1533513183 -1.8426319545
H 2.3059827919 -3.8740912876 0.8774218646
H 3.5636986293 -1.8626686832 1.5251629302
