65
CONF169
C 7.5145221850 -0.1154408839 0.9478920665
O 7.3419012350 -0.7086229408 -0.3437695718
C 6.3229093091 -1.6077560043 -0.4912025138
C 6.1886635830 -2.1713218951 -1.7656987637
C 5.1834302766 -3.0935456145 -2.0133469960
C 4.2863950971 -3.4842733385 -1.0104443454
C 4.4401666006 -2.9158817592 0.2518173575
C 5.4443081482 -1.9844545406 0.5257185184
C 3.1750664351 -4.4550358530 -1.3113214524
C 2.0540223522 -3.8356159251 -2.1594344303
N 1.4408907626 -2.6495478776 -1.5544800433
C 0.5968352722 -1.9618758399 -2.5394685304
C 0.0179744883 -0.6722670862 -1.9673464510
C -0.7903789850 -0.9667026984 -0.7086639211
C 0.0714502339 -1.7465715682 0.2855714021
C 0.6434625474 -2.9977349595 -0.3721287412
N -1.2997165789 0.2887778431 -0.1511782539
C -2.3142442387 0.2867730288 0.7524088337
N -3.1344187524 -0.7275261883 0.9888087026
C -4.0482572438 -0.2329371627 1.9070530333
C -5.1392355693 -0.8588978946 2.5072838449
C -5.9130166281 -0.1192400527 3.4028193591
C -5.6116811891 1.2161373070 3.6981725966
C -4.5194438590 1.8602495376 3.1097578310
C -3.7542832942 1.1148225258 2.2252043146
N -2.6210555035 1.4232638487 1.4833537149
C -1.9740045995 2.7195910960 1.3679608576
C -2.2397832404 3.3973915209 0.0399082161
C -3.4907893707 3.3011450737 -0.5727136972
C -3.7416381801 3.9402184397 -1.7826894405
C -2.7188553760 4.6745727033 -2.3605174374
C -1.4656195488 4.7931975032 -1.7861740785
C -1.2342771653 4.1423039442 -0.5766223141
F -2.9541778661 5.2973678604 -3.5443414338
H 8.3636265592 0.5620984760 0.8521743927
H 7.7357259062 -0.8766384311 1.7059248899
H 6.6238168479 0.4514106439 1.2446366427
H 6.8837129351 -1.8779258409 -2.5463929867
H 5.0948473472 -3.5238723612 -3.0080479889
H 3.7607491271 -3.2008411088 1.0512970277
H 5.5261772010 -1.5702412064 1.5233131699
H 3.5677805237 -5.3077300615 -1.8786945842
H 2.7735570272 -4.8615691507 -0.3776839439
H 1.2949734140 -4.6143745736 -2.3754891249
H 2.4819355967 -3.5298316827 -3.1224055241
H -0.2344828384 -2.6153098936 -2.8781905358
H 1.2078703251 -1.7326389088 -3.4200014206
H 0.8385109384 0.0155797837 -1.7203586839
H -0.6147362119 -0.1862534076 -2.7183735318
H -1.6613895526 -1.5763997502 -0.9786129772
H 0.8943560229 -1.1039758108 0.6263739961
H -0.5245197315 -2.0284951454 1.1602554855
H 1.2761407064 -3.5253686159 0.3479693203
H -0.1846930967 -3.6852345253 -0.6453225023
H -0.6141367912 1.0260239417 -0.0614884803
H -5.3782513886 -1.8928372031 2.2776638166
H -6.7686621107 -0.5878467029 3.8791516255
H -4.2931166868 2.8966893776 3.3391705926
H -2.3432111920 3.3397185356 2.1916785564
H -0.8939853633 2.6099742981 1.5259234027
H -4.2789714656 2.7157678395 -0.1081856139
H -4.7071594454 3.8719376432 -2.2719816754
H -0.6909098935 5.3705548415 -2.2787345425
H -0.2537069970 4.2127865868 -0.1139235696
H -6.2365701045 1.7651406966 4.3952560094
