63
CONF31
C 4.1825067177 1.4991767627 -2.2531001026
O 3.5174983484 1.7427123586 -0.9957046646
C 4.2015042086 1.2874732859 0.0658567940
O 5.2916866599 0.7824007057 0.0520901921
O 3.4458666267 1.5557333886 1.1622094192
C 3.7896913600 0.8049027362 2.3350341925
O 3.2039967267 -0.4829259566 2.2553790005
C 1.8464975312 -0.4780573767 2.3113360583
C 1.1002003466 -0.8329158300 1.2149281676
C 1.6908812523 -1.2924332350 -0.0877975863
O 2.8864297141 -1.2305533989 -0.3304091409
N 0.7941465122 -1.8226397196 -0.9961780680
C 1.2689532774 -2.8016293887 -1.9738469187
C 0.9619027305 -4.1946413163 -1.4264054079
O -0.4297695766 -4.3358389458 -1.1243718915
C -0.8681763925 -3.3975388107 -0.1458131939
C -0.6291037970 -1.9832296105 -0.6790387928
N -1.0936753881 -0.9310590315 0.2006482791
N -0.2833236758 -0.9098160600 1.3551578280
C -0.9047764576 -0.6362706883 2.5361217635
C -0.2038935022 -0.2941431688 3.6451424964
C 1.2299533083 -0.1468382983 3.6144528060
O 1.9161204387 0.2102352489 4.5771302099
C -1.0764563555 0.4265430535 -0.4897366471
C -2.0531551940 0.4562731724 -1.6407071870
C -3.4236110009 0.1976099054 -1.4660037671
C -3.9902007263 -0.1658062826 -0.1333534763
S -4.0578628246 1.2611867184 1.0199602149
C -2.4114001203 1.9290758047 1.1702077190
C -2.3698789414 2.9806534089 2.0994546117
C -1.1887444163 3.6415084052 2.3899328381
C -0.0128304865 3.2784218666 1.7407748115
C -0.0496749876 2.2533292193 0.8111146912
C -1.2273605813 1.5516225858 0.5099130063
C -4.2569750124 0.3061769127 -2.5735423455
C -3.7627704455 0.6482463201 -3.8270851267
C -2.4155037271 0.8951492883 -4.0038532904
C -1.5695780499 0.7946398680 -2.9045373298
F -4.6134308152 0.7270915549 -4.8606796452
F -5.5750107973 0.0726585984 -2.4499701872
H 5.1561499251 1.9951937569 -2.2731979609
H 3.5230923821 1.9176451074 -3.0135720554
H 4.3149231572 0.4240016998 -2.3977872664
H 3.3902006421 1.3727077025 3.1760480242
H 4.8660269102 0.6421246297 2.3908070588
H 2.3417811806 -2.6589357123 -2.1224979509
H 0.7433105340 -2.6424132285 -2.9238170583
H 1.1907441457 -4.9663225786 -2.1666612447
H 1.5661071033 -4.3727359320 -0.5217177667
H -0.3339345804 -3.5442894953 0.8074920797
H -1.9368207606 -3.5759065842 0.0057116558
H -1.1892105626 -1.8838891963 -1.6189226827
H -1.9866412897 -0.7020639087 2.5029612576
H -0.7220187551 -0.1066208267 4.5776325225
H -0.0827643079 0.5661739945 -0.9340258322
H -3.4255802244 -0.9782905037 0.3240029816
H -5.0372432036 -0.4637526892 -0.2215035571
H -3.2853423224 3.2713409297 2.6070953778
H -1.1909403530 4.4403465254 3.1241004431
H 0.9234597155 3.7816278543 1.9542643974
H 0.8712989308 1.9675630961 0.3107892850
H -2.0478453056 1.1598988002 -4.9885453592
H -0.5094281529 0.9901117940 -3.0315241640
