22
CONF1
Cl -5.2666959192 -0.6067680111 -0.4436363075
C -3.5300141834 -0.5890347783 -0.2879921399
C -2.8548935233 0.5479637574 0.1604187063
Cl -3.7267588839 1.9952974407 0.5994383765
C -1.4707339866 0.5396799102 0.2761081769
C -0.7369712137 -0.6033965154 -0.0557158380
C -1.4251034743 -1.7381378065 -0.5032359376
C -2.8069147769 -1.7312156811 -0.6188968391
C 0.7342782668 -0.6087690085 0.0670015131
C 1.4756495988 0.5315721733 -0.2572077974
C 2.8598268863 0.5298986181 -0.1415599033
Cl 3.7412415265 1.9742718337 -0.5711452251
C 3.5273465313 -0.6145167597 0.2992898257
Cl 5.2638734779 -0.6447740203 0.4548252601
C 2.7966580316 -1.7540645991 0.6225365991
C 1.4148277026 -1.7510671180 0.5068542101
H -0.9706483352 1.4252474708 0.6517656201
H -0.8777072826 -2.6296418881 -0.7891813785
H -3.3333274069 -2.6088043581 -0.9767437236
H 0.9814046930 1.4228800436 -0.6269716253
H 3.3172458818 -2.6374918552 0.9744981049
H 0.8615523150 -2.6408679822 0.7867606356
