51
CONF5
C 3.4809928653 0.4474748722 -1.7017167449
C 3.1000271068 -0.8357176645 -0.9680356847
C 2.6200685918 -0.6391539277 0.4940197736
C 2.3429383604 -2.0167745406 1.1190109881
C 3.6618520407 0.1115380792 1.3274574654
C 1.3473433055 0.1878303708 0.4641832038
O 1.2047785666 1.3259015601 0.8065380740
O 0.2800003035 -0.5805101210 -0.0316252126
C -0.9452873081 -0.0049676413 -0.1470206527
C -1.3381509474 1.0824143416 -0.8242021528
C -2.7832435464 1.2500019388 -0.5457851115
O -3.5271506786 2.1225426174 -0.9079196699
O -3.2034006891 0.2055206501 0.2455702500
C -2.0843108689 -0.6531421761 0.5779599120
C -1.8795435734 -0.6252807651 2.0981912235
C -3.0550151917 -1.2715409656 2.8326935810
C -3.3042184649 -2.6947363972 2.3306802697
C -3.5460741537 -2.7043080888 0.8201780429
C -2.3744751765 -2.0698527200 0.0694795841
C -0.5967750393 2.0108834029 -1.6721467509
C -0.6281754901 3.3810601919 -1.3853986246
C 0.0618611605 4.3050985364 -2.1530404676
C 0.7920487550 3.8530684487 -3.2462602023
C 0.8298840371 2.5090138460 -3.5889862373
C 0.1290634461 1.6060765272 -2.7974761681
Cl 0.1471288582 -0.0779547253 -3.2844805417
Cl 1.6786823016 4.9995043540 -4.2270245686
H 2.6794629026 1.1922724033 -1.6609188681
H 3.6764486644 0.2336094775 -2.7564005902
H 4.3817153924 0.9038347202 -1.2823457714
H 3.9625698815 -1.5133156257 -0.9274594166
H 2.3118609067 -1.3588279303 -1.5199039003
H 1.9070774111 -1.9181198821 2.1185201165
H 3.2884646610 -2.5590719187 1.2167921547
H 1.6664299075 -2.6105291625 0.5006092770
H 3.8126689924 1.1292529770 0.9647957695
H 3.3476079297 0.1748121364 2.3731456734
H 4.6146082600 -0.4254736181 1.2839102779
H -1.7323828687 0.4136675494 2.4127042621
H -0.9535667856 -1.1726723976 2.3190133543
H -2.8519934716 -1.2726458661 3.9092512518
H -3.9543392834 -0.6645092270 2.6751341988
H -4.1613575886 -3.1338543447 2.8526799775
H -2.4324254071 -3.3227985874 2.5645780210
H -4.4632355876 -2.1487004554 0.5909423542
H -3.6934113849 -3.7285798224 0.4603898169
H -2.5677842630 -2.0212194774 -1.0075641065
H -1.4645846554 -2.6654243190 0.2181123003
H -1.2038640242 3.7148521850 -0.5298100424
H 0.0357372704 5.3600805727 -1.9096362992
H 1.3834455589 2.1693689153 -4.4548372866
