49
CONF47
C -3.8907849409 -1.7426717841 1.5313731729
C -3.5954284755 -0.2604722737 1.4407443815
C -2.1418484414 0.2472204726 1.5730412202
C -3.2047731288 0.5124345169 2.6640289962
C -3.6206951303 1.9635322434 2.8141982639
C -3.0973028450 -0.1771535230 4.0073711333
C -1.0054491735 -0.6452138895 1.7799339793
O -0.9426143058 -1.6852189870 2.4050546925
O 0.1023116246 -0.1364460145 1.1258836155
C 1.3178780628 -0.9042703645 1.2856623233
C 1.2066826671 -2.1688180237 0.5453266308
N 1.1498805104 -3.1527556685 -0.0572186460
C 2.4629572875 -0.0682263717 0.7671122302
C 3.4202515310 0.4123954721 1.6567181058
C 4.4554323254 1.2125085912 1.1759582104
C 4.5414377125 1.5205502809 -0.1752899602
C 3.5758529950 1.0277299121 -1.0538711967
C 2.5293848678 0.2362354133 -0.5924645421
O 3.6894189369 1.4163641233 -2.3699150740
C 3.1541292133 0.6015649225 -3.3611321822
C 2.3450288606 1.2045823482 -4.3161728382
C 1.8556034490 0.4356655314 -5.3701579662
C 2.1676891875 -0.9189220100 -5.4582592813
C 2.9826253947 -1.5060692471 -4.4905991379
C 3.4862205132 -0.7486486494 -3.4374511447
C -4.4111006313 0.4031382013 0.3473849554
H -3.2839293673 -2.2644447590 2.2681830830
H -3.7213716169 -2.2147639515 0.5574161752
H -4.9473095546 -1.8791768618 1.7893895902
H -1.9042219701 1.1074752873 0.9561696406
H -4.6422363526 2.0173137405 3.2083166398
H -2.9581318587 2.4651774292 3.5273943090
H -3.5848367275 2.5171544393 1.8755978604
H -4.0816186594 -0.1708297964 4.4896228843
H -2.4061852909 0.3757832946 4.6529494353
H -2.7485747082 -1.2058506303 3.9447040110
H 1.4673942358 -1.1488713454 2.3428679277
H 3.3575087821 0.1654755907 2.7113960196
H 5.2069402552 1.5927482373 1.8599608922
H 5.3466233086 2.1358671937 -0.5625434182
H 1.7749123547 -0.1345137611 -1.2787700380
H 2.1088052410 2.2599147176 -4.2284598105
H 1.2236109661 0.9000285149 -6.1206037847
H 1.7810333463 -1.5150011608 -6.2782747359
H 3.2372862878 -2.5591093621 -4.5583031303
H 4.1278413969 -1.1952848743 -2.6846235550
H -5.4762377452 0.3616629371 0.6035859370
H -4.2710752705 -0.1358456104 -0.5955504241
H -4.1390155269 1.4460553076 0.1819835680
