35
CONF43
C -4.7520060774 -2.7160596589 -0.0934084785
C -4.0035338463 -1.6909345988 0.7260025839
O -3.3517540925 -0.7371805467 -0.1718141857
P -1.7650441858 -0.7425897851 -0.2989308584
S -0.8422260805 -2.4082376386 -0.6141060114
O -1.6001622992 0.4452220672 -1.3475917646
C -0.5087199015 0.4835077780 -2.3165732538
C -0.1962234673 1.9374471809 -2.5767520094
O -1.4178243325 -0.0417157880 1.1683962733
C -0.1444463478 0.1681132806 1.5582029074
N 0.1960320770 0.0905188554 2.8657125844
C 1.4845176000 0.3746403847 2.8087160403
N 1.8965701837 0.6197225517 1.5468025057
N 0.8263524809 0.4859754956 0.7135449425
C 3.2385539539 0.8493713812 0.9971693677
C 3.2332768923 2.0939898082 0.1158527261
C 3.7039242571 -0.3973971451 0.2478274949
Cl 2.5356092932 0.4374145700 4.1663314417
H -4.0552929226 -3.3020686998 -0.6981148124
H -5.4734425181 -2.2285962653 -0.7545384322
H -5.2935994035 -3.3942274474 0.5739758619
H -3.2563463340 -2.1630577142 1.3731426856
H -4.6730833145 -1.0893074696 1.3469358705
H 0.3551246567 -0.0473991378 -1.9085868159
H -0.8534271238 -0.0338154732 -3.2178463264
H -1.0733688983 2.4661267840 -2.9591091157
H 0.6040180982 2.0101668349 -3.3202938410
H 0.1338311007 2.4228793133 -1.6543625216
H 3.8798075492 1.0183727319 1.8681716303
H 2.5932988139 1.9386707330 -0.7566625645
H 2.8684380655 2.9655060610 0.6659088473
H 4.2500490510 2.2989252212 -0.2298292844
H 4.7133093278 -0.2388335970 -0.1417689954
H 3.0315137280 -0.6053850241 -0.5891239142
H 3.7162732121 -1.2697653449 0.9067194273
