37
CONF25
C 3.6559597436 -1.4070394554 0.0653998086
C 3.2011024858 -0.0123859440 0.4955237618
C 1.7275891396 0.0596452370 0.9086847034
C 0.7762289757 -0.3000707013 -0.2291265970
C -0.7210305916 -0.1702009593 0.1548315434
C -1.6476742759 -0.5021898165 -1.0619633334
N -1.3589563130 -1.7723503103 -1.6912231843
C -1.7654018103 -3.0198906947 -1.3485499607
N -1.2271497713 -3.9144709603 -2.1579987593
C -0.4774814494 -3.1456553689 -2.9959669857
N -0.5187768634 -1.8418684682 -2.7558564971
C -1.0083218027 -1.1563919071 1.1983112751
N -1.2412468479 -1.9709456798 1.9845386040
C -1.0831478765 1.2392921992 0.6276158718
C -0.7781435480 2.3293727124 -0.1924438533
C -1.1060309692 3.6244477205 0.1849963355
C -1.7507375536 3.8312658275 1.3996255871
Cl -2.1660506971 5.4609990822 1.8839620447
C -2.0671734679 2.7670708911 2.2319960395
C -1.7314481903 1.4751271026 1.8385446040
H 3.4232366624 -2.1492568099 0.8369805549
H 4.7358634566 -1.4300506779 -0.1070540029
H 3.1711986140 -1.7267371466 -0.8621137837
H 3.8111601029 0.3222552164 1.3426117186
H 3.3847978104 0.7033774920 -0.3168160970
H 1.5013477125 1.0710928280 1.2671853513
H 1.5536892221 -0.6206703859 1.7533274763
H 0.9479099416 -1.3281633475 -0.5593511939
H 0.9606740293 0.3372198575 -1.1017815479
H -2.6893624790 -0.4952772740 -0.7269746730
H -1.5183931316 0.2735314763 -1.8195351364
H -2.4321503387 -3.2128569941 -0.5185015050
H 0.1101772774 -3.5516513250 -3.8087578971
H -0.2675485026 2.1799109406 -1.1383868852
H -0.8629634360 4.4652153176 -0.4539446247
H -2.5674653353 2.9424592474 3.1770445859
H -1.9742807213 0.6458417715 2.4951659583
