29
CONF298
C -2.5644127853 -1.1187177842 -1.8011755939
N -2.7230244089 -0.3881179500 -0.5295131466
C -2.7873114012 -1.2024505585 0.7044984160
C -4.1965301254 -1.7465527813 0.9105539057
O -5.1497687436 -0.7092337076 1.1356838928
S -2.2704330517 1.1903526106 -0.4657570589
O -2.6896464434 1.8572832198 -1.7026195750
O -2.6027838616 1.7392796097 0.8503074074
C -0.3439896588 1.3021795049 -0.6178616837
C 0.4532391238 0.4224600209 0.3863439779
C 1.9823756712 0.7602548187 0.4541077990
C 2.8577196608 -0.3545318558 1.1154965076
F 2.3347702373 -0.7250566857 2.2920693511
F 2.9477218049 -1.4246241527 0.3184612826
F 4.0891791602 0.1310998939 1.3211409464
F 2.1403944668 1.8914694308 1.1745118564
F 2.4584343409 0.9631604298 -0.7959755889
F 0.3036422525 -0.8736620966 0.0158723820
F -0.0662425849 0.5832393152 1.6239692380
F -0.0192033606 2.6006603225 -0.4375711144
F -0.0323861245 0.9366497304 -1.8772437213
H -2.6494250014 -0.4302912363 -2.6420597732
H -1.6012832698 -1.6405327217 -1.8374757260
H -3.3724369010 -1.8505319908 -1.8727317857
H -2.5141016209 -0.5846414153 1.5623453427
H -2.0722119910 -2.0307359397 0.6230524631
H -4.4971440708 -2.3815127930 0.0658893761
H -4.1855494164 -2.3682039036 1.8112968254
H -5.2321514876 -0.2038401350 0.3161984987
