74
CONF262
C -0.9724276433 -1.4986102501 1.1990365027
C -0.6645434478 -2.6615819650 2.1327838810
O -1.4790274290 -2.3732802280 3.3215260500
C -1.7849898561 -1.0494139399 3.3810525255
O -2.3953213986 -0.5891858974 4.3179751900
C -1.1892421666 -0.3571863371 2.1810731799
C -1.9075838075 0.8303367525 1.5345784320
C -3.3959231544 0.5856700309 1.3068686994
C -4.3023135588 0.9456536001 2.3058198253
C -5.6604237508 0.6910115663 2.1286361073
O -6.6473516200 0.9928030005 3.0268650437
C -6.2470415214 1.5635288550 4.2804476105
C -6.1298011393 0.0859503182 0.9567899301
O -7.4602197534 -0.1632341405 0.7675327343
C -5.2204111454 -0.2561580258 -0.0497338512
O -5.7683438303 -0.8230926174 -1.1638980525
C -4.8707507654 -1.1759893934 -2.2243012573
C -3.8587908131 -0.0038002260 0.1281401606
C -1.1976090548 1.1582141303 0.2250337905
C -1.5019921937 2.4045620383 -0.3594177926
C -0.9755647696 2.6836136025 -1.5963048894
C -0.1830066981 1.7675077521 -2.2791800186
O 0.1939236600 2.2822702579 -3.4907737923
C -0.3902817499 3.6019451722 -3.5664295790
O -1.1333544955 3.8171328994 -2.3442480351
C 0.1274075000 0.5455796368 -1.7389274072
C -0.3747554729 0.2435593054 -0.4519899840
C 0.0459145660 -1.0775705507 0.1617101857
O 1.3171688026 -0.9794983176 0.8796457439
C 2.3983983160 -0.4526491001 0.1869736956
O 2.7867166452 -1.3799641403 -0.8338463950
C 3.8830495506 -0.8426500226 -1.5710797596
C 4.2327695168 -1.7683636854 -2.7236221707
O 5.3966795747 -1.2455732401 -3.3800602753
C 6.4998273744 -1.1321220011 -2.4867460426
C 7.6758270693 -0.5902573134 -3.2536892052
O 6.2044128512 -0.2295110849 -1.4210048684
C 5.1006906812 -0.7177406324 -0.6547119100
C 4.8043881292 0.2245157458 0.5009487749
O 5.8987152824 0.3416441346 1.4064435768
C 3.5285957074 -0.2500832349 1.2033321251
O 3.1587496896 0.7413925652 2.1561853206
H -1.9150853053 -1.7073123231 0.6791706684
H -0.9780901880 -3.6363365586 1.7576495996
H 0.3829915954 -2.6882005290 2.4441346493
H -0.2015972055 -0.0082265824 2.5243355441
H -1.8168885558 1.6943405256 2.2028915759
H -3.9405356374 1.4097978013 3.2140560556
H -7.1657924855 1.6951570925 4.8520896176
H -5.5690178810 0.8884953993 4.8149260896
H -5.7622362167 2.5344521363 4.1287579757
H -7.9297690044 0.1356081884 1.5609050125
H -5.4957928993 -1.6050400050 -3.0079433777
H -4.3501162651 -0.2915425793 -2.6104515612
H -4.1370896649 -1.9188151961 -1.8891103230
H -3.1569287828 -0.2390948724 -0.6616678524
H -2.1518508227 3.1092276072 0.1496383364
H 0.4083337860 4.3475481454 -3.6391072944
H -1.0775217562 3.6456579924 -4.4175584001
H 0.7460629007 -0.1694107900 -2.2723173412
H 0.1598525560 -1.8327063427 -0.6247351183
H 2.1517373010 0.5160188962 -0.2824972673
H 3.6263079224 0.1537568152 -1.9684695457
H 3.4330548548 -1.8051979538 -3.4674449727
H 4.4268816043 -2.7835949775 -2.3429687333
H 6.7036675514 -2.1275350205 -2.0511917304
H 7.4299103930 0.3925492037 -3.6656252435
H 7.9292492310 -1.2699155288 -4.0702392398
H 8.5381789606 -0.4967793599 -2.5898958690
H 5.3429214507 -1.7195419450 -0.2546171064
H 4.6370216018 1.2356462154 0.1073965043
H 6.0754613441 -0.5344500918 1.7772464956
H 3.7240997834 -1.2182148636 1.6944645994
H 2.3904154439 0.4042856082 2.6362172488
