45
CONF25
C -1.5506611806 3.1877567155 -0.1474685670
O -1.4595402129 1.8305288859 -0.6448447583
C -2.5978277868 1.1121652538 -0.5341369225
O -3.6340156158 1.5124646573 -0.0331314995
N -2.4132830685 -0.1511453924 -1.0375862054
C -1.3102922049 -0.6454461913 -1.7840263422
C -0.9158370328 -0.0004426136 -2.9569899937
C 0.1523679092 -0.4977744145 -3.6926602121
C 0.8022925441 -1.6563454041 -3.2710038067
C 0.3897836769 -2.3075390111 -2.1129037623
C -0.6634866359 -1.8081869543 -1.3466353243
C -1.1030708209 -2.5050249960 -0.0850522722
O -0.0168277775 -3.2033119927 0.5583960529
C 0.9058331837 -2.4301816339 1.1652526820
N 0.8243436740 -1.1058581363 1.2342795390
N 1.9321615502 -0.7430689808 1.9460739832
C 2.6859989151 -1.8243094234 2.2997123526
C 2.0535165277 -2.9424982161 1.8115211665
C 2.2026189818 0.6176204691 2.1937830007
C 1.6496764292 1.6006186885 1.3692998269
C 1.9280830584 2.9406086797 1.6092744854
C 2.7613637611 3.2848373073 2.6663954375
C 3.3147856198 2.3177504448 3.4965877639
C 3.0252362427 0.9795950602 3.2636435283
Cl 3.1177674646 4.9822718159 2.9652384585
O -3.5033236304 -1.0177361153 -0.9112196691
C -4.3297827408 -0.9603197352 -2.0984789183
H -1.6913092451 3.1844728446 0.9363952344
H -0.5984165162 3.6481969043 -0.4074667111
H -2.3746112873 3.7165046265 -0.6314602241
H -1.4462279664 0.8902497679 -3.2767688095
H 0.4649483809 0.0079877846 -4.6003688859
H 1.6301225762 -2.0566306309 -3.8474999245
H 0.9023515256 -3.2051602877 -1.7822184160
H -1.8338306331 -3.2870583410 -0.3087460666
H -1.5539660997 -1.7954151507 0.6157549460
H 3.6145923272 -1.7216904929 2.8404097928
H 2.3649739141 -3.9716454506 1.8957174746
H 1.0115596551 1.3187933248 0.5403570575
H 1.5081180202 3.7073471747 0.9688433030
H 3.9510780608 2.5997346921 4.3274972246
H 3.4307351804 0.2278211337 3.9305372653
H -5.1377416862 -1.6700609738 -1.9113232442
H -4.7329349263 0.0486084292 -2.2325210547
H -3.7573219943 -1.2682233335 -2.9804593768
