24
CONF1
C -1.0009764787 -1.9629221864 1.8982911902
N -1.4992637412 -0.8791514314 1.0569799206
C -0.7134035616 0.0264440892 0.3598382946
C -1.5743936328 0.8969585885 -0.2915050852
C -2.8999161523 0.5216872036 0.0076894867
C -2.8132214512 -0.5819574138 0.8389597510
Br -4.2034705583 -1.5908843437 1.5799195070
Br -4.4744664807 1.3350764386 -0.6006683435
Br -1.0294537486 2.3088890772 -1.4041078502
C 0.7304367255 -0.0231690985 0.3443273462
C 1.5765650724 -0.9339913475 -0.2702858716
C 2.9084497931 -0.5403896000 -0.0283631901
C 2.8403656510 0.6146604376 0.7317677483
N 1.5317118659 0.9255972982 0.9621493246
C 1.0526619534 2.0595911793 1.7465179938
Br 4.2462530054 1.6673719003 1.3760124251
Br 4.4690093317 -1.3908940074 -0.6218966262
Br 1.0054619019 -2.4153655519 -1.2742071784
H -1.4571654765 -1.9017459172 2.8889706751
H -1.2308422404 -2.9314857874 1.4457533750
H 0.0800034221 -1.8522938369 1.9894095356
H 1.2731866842 2.9983254869 1.2309289816
H 1.5306787842 2.0578250485 2.7288052253
H -0.0261029360 1.9568737663 1.8678604788
