53
CONF402
C 3.8849603112 2.7091600492 -1.1585436534
C 3.1073073119 1.4055874632 -1.3769651527
C 3.9354442527 0.4956676807 -2.3029408150
C 1.7862354476 1.7217800223 -2.0944391289
O 0.9806745760 2.5423736637 -1.2471675700
C -0.2717686837 2.8787364739 -1.8284133810
C -1.2553922448 1.7287303863 -1.8759660647
C -1.1366278505 0.6572565790 -0.9906481571
C -2.0626334327 -0.3756254162 -1.0393066747
C -3.1314096064 -0.3578130528 -1.9307662054
C -3.2527367625 0.7220642568 -2.7995248209
C -2.3154731027 1.7531198776 -2.7837689409
O -1.8407283743 -1.4781280751 -0.2235878146
C -2.8430688329 -1.8722316106 0.6401818493
C -2.8700451494 -3.2205117769 0.9887371655
C -3.8006805722 -3.6632664017 1.9226251028
C -4.7029304209 -2.7715240587 2.5012128507
C -4.6648793926 -1.4267280981 2.1402950606
C -3.7358006008 -0.9654739063 1.2103353960
C 2.7925953237 0.6790679146 -0.0681322526
C 3.0863267072 1.2298148396 1.1817095682
C 2.7667037902 0.5681908503 2.3662633607
C 2.1319553093 -0.6584700931 2.2865051062
C 1.8370066283 -1.2517241275 1.0689992254
C 2.1706748519 -0.5769860016 -0.0985935339
O 1.8330026432 -1.3949709231 3.4569941867
C 0.8311511467 -0.9691321387 4.2469273821
F 1.0620197546 0.2490069618 4.7936178750
F 0.7082667066 -1.8491757230 5.2492207347
Br -0.9340129181 -0.8488894191 3.3036910479
H 4.8448778346 2.5147342140 -0.6696218165
H 3.3221329922 3.4257655926 -0.5556099156
H 4.0881910178 3.1714346018 -2.1295682670
H 4.8769770318 0.2250150505 -1.8155049776
H 4.1694925442 1.0231448089 -3.2335824733
H 3.4039638329 -0.4248983082 -2.5590320799
H 1.9992191398 2.2544255214 -3.0359360537
H 1.2560554385 0.7900209357 -2.3423579253
H -0.1324468244 3.2854751687 -2.8423098731
H -0.6823959720 3.6811651615 -1.2032817274
H -0.3211049660 0.6153985761 -0.2761160905
H -3.8410105537 -1.1785856000 -1.9472898807
H -4.0736773611 0.7477783655 -3.5094173160
H -2.4082616065 2.5807021034 -3.4816457827
H -2.1578636759 -3.9011893415 0.5339624454
H -3.8210176236 -4.7134587440 2.1968099638
H -5.4279019889 -3.1217492816 3.2282423277
H -5.3575064799 -0.7219819016 2.5900055682
H -3.6982940992 0.0839032437 0.9377402516
H 3.5764078356 2.1926733405 1.2550066115
H 3.0151386901 1.0028412783 3.3272457080
H 1.3491583664 -2.2199471586 1.0409094717
H 1.9237292880 -1.0423297213 -1.0471992425
