33
CONF17
C 4.8360231113 0.5670684381 -1.3861326994
C 5.9887026970 1.5759696513 -1.4650906210
O 5.7865544544 2.5991216259 -2.4397673929
C 3.6571510308 1.0782279017 -0.5942140446
C 2.4237945780 0.1227745964 -0.6361101083
C 1.3015128902 0.4384081604 0.4201433088
C -0.0891199696 -0.1964462447 0.0590878085
C -1.1790783536 -0.1053202489 1.1866036196
C -2.4754348215 -0.9404167183 0.8630621472
C -3.7160126592 -0.4923471654 1.7099298420
C -4.8809620223 -1.5365939216 1.7359843142
F -5.9569678068 -0.9634220414 2.2914150453
F -5.1900411508 -1.9240164389 0.4910156728
F -4.5475348364 -2.6094593748 2.4606681423
F -4.2061109470 0.6534517549 1.1899148175
F -3.3373844249 -0.2723876697 2.9899751552
F -2.7938494945 -0.8181433444 -0.4436624107
F -2.2156953084 -2.2419176460 1.1259606954
F -1.5167965285 1.1963961931 1.3400649300
F -0.6821954054 -0.5711228329 2.3514432145
F -0.5680338801 0.4532969201 -1.0254691614
F 0.0975670348 -1.5040553140 -0.2453369009
F 1.1259757117 1.7772259068 0.5171275625
F 1.7246192255 -0.0319775574 1.6141488842
F 1.9050884323 0.1715468748 -1.8889059294
F 2.8540749032 -1.1441291215 -0.4055818340
F 3.9988985549 1.2609586529 0.7222791399
F 3.2392474739 2.3007232914 -1.0639942157
H 4.5039109198 0.3052129047 -2.3958091432
H 5.1876278297 -0.3461543157 -0.8964954997
H 6.8809718694 1.0304046657 -1.7830564955
H 6.1940544179 2.0038558770 -0.4746406028
H 5.1310310143 3.2192455463 -2.0995918712
