41
CONF83
C -3.9152014127 -0.7846825875 3.4166402284
C -4.2156809425 0.0241459234 2.1550810101
N -3.5336289586 -0.4945864880 0.9666628122
C -4.2571206724 -1.5043166775 0.1959466578
C -4.8781353746 -0.9361369970 -1.0811042041
O -5.7966606068 0.1164386870 -0.7992287984
C -2.2173376267 -0.2020738721 0.7138032623
C -1.4776537517 0.6701366450 1.5494760763
C -0.1618416141 0.9688052700 1.2675087083
C 0.4920077829 0.4224898345 0.1534734157
C -0.2300803546 -0.4524711920 -0.6798200076
C -1.5434711777 -0.7559448452 -0.4094255702
N 1.8176008942 0.7982706758 -0.0249147821
N 2.3897874932 0.3136787978 -1.0460532166
C 3.7327204741 0.7052345802 -1.1935374131
C 4.3757314188 0.2230493853 -2.3427759115
C 5.6991857214 0.5391913101 -2.5961047607
C 6.3773301289 1.3420336819 -1.6847892203
C 5.7623523444 1.8323915942 -0.5324572001
C 4.4408621448 1.5144168253 -0.2867296219
N 7.7838633362 1.6824983071 -1.9426346116
O 8.2996563543 1.2394794131 -2.9643714070
O 8.3572700158 2.3941294031 -1.1232021537
H -4.4447743674 -0.3599408258 4.2748739895
H -2.8445297608 -0.7899746779 3.6379720451
H -4.2405706444 -1.8226283981 3.2965291980
H -3.9483868152 1.0771127342 2.2947415766
H -5.2888446532 0.0079458439 1.9425326593
H -5.0618903606 -1.8907159804 0.8297660847
H -3.6052416596 -2.3542985366 -0.0437605562
H -4.0960848866 -0.5963039116 -1.7749953936
H -5.4525036476 -1.7249658587 -1.5790546018
H -5.2811297833 0.8939995460 -0.5562804432
H -1.9289066561 1.1058123943 2.4308566540
H 0.3996428653 1.6355109344 1.9142009338
H 0.2640283206 -0.8837916851 -1.5425527437
H -2.0638140349 -1.4260941710 -1.0813360555
H 3.8096939227 -0.4008748070 -3.0258438713
H 6.2126515743 0.1783775535 -3.4780872555
H 6.3314770436 2.4523181959 0.1491041446
H 3.9376289110 1.8794924795 0.5998898455
