61
CONF15
C -2.1258156236 -2.4686077065 -3.0669172601
C -1.5276426315 -1.3537268591 -2.2144758723
C -1.9269777853 -1.3463561566 -0.7544306035
C -2.6394338334 -2.4009105971 -0.1918346943
C -3.0387515490 -2.3882006961 1.1496412135
C -2.6968823544 -1.2904953832 1.9306098736
C -1.9653900429 -0.2157111357 1.4116885224
C -1.5807198224 -0.2416556989 0.0611675552
C -0.8293892838 0.8811627299 -0.5231720053
C -1.3453200667 2.2017843795 -0.8256804685
O -2.4695469147 2.6960539042 -0.6368872094
N -0.2998993075 2.8685418484 -1.4565716987
N 0.8150730610 2.0478481229 -1.5643104491
C 0.4664814091 0.8823129553 -0.9489957107
O 1.3578761267 -0.1496992325 -0.9010647343
C 2.0300699696 -0.3287076817 0.3098989013
O 2.0336483229 0.5280588990 1.1542681293
C 2.6670470348 -1.6985881865 0.3758259887
C 1.5164492591 -2.7170189705 0.5290219531
C 3.5869021843 -1.7545684226 1.5974370025
C 3.4596321762 -1.9879473116 -0.9090552956
C 2.1556552121 2.6429228772 -1.5366716357
C 2.3467370678 3.6804798281 -0.4304831335
O 1.8881238587 4.9822850208 -0.7977602067
C 0.4684113632 5.1294591532 -0.7790667350
C -0.2546457828 4.2726524691 -1.8156332666
C -1.5885144035 0.9165045255 2.3372744765
C -0.6446083884 0.4625810445 3.4595285016
C -3.8377948208 -3.5314251450 1.7137184352
H -1.8126561334 -2.3460821434 -4.1077351677
H -1.7932061417 -3.4572450926 -2.7350887982
H -3.2203817959 -2.4519061535 -3.0391132355
H -0.4328860962 -1.4054629820 -2.2805613008
H -1.7953293241 -0.3801233872 -2.6449577916
H -2.9099077224 -3.2555399777 -0.8041138684
H -3.0022072101 -1.2650534868 2.9742900979
H 0.8604905515 -2.7092627526 -0.3458052248
H 0.9165745398 -2.5016598880 1.4199526323
H 1.9487015659 -3.7168125979 0.6349719939
H 4.3894197328 -1.0154588529 1.5174713982
H 4.0354903034 -2.7500471601 1.6595698401
H 3.0303579820 -1.5652186445 2.5191079366
H 4.2420426629 -1.2383276159 -1.0646752145
H 2.8089402518 -2.0073839429 -1.7861507443
H 3.9369154468 -2.9675062747 -0.8100693836
H 2.3693214597 3.0969998781 -2.5103420353
H 2.8527549456 1.8122060162 -1.3990040360
H 1.8622029814 3.3418844196 0.4981172291
H 3.4203226785 3.7864579267 -0.2488505054
H 0.0751537012 4.8980444541 0.2234255634
H 0.2774566214 6.1837422896 -1.0010002890
H -1.2995337052 4.5930574370 -1.8753120962
H 0.1972091763 4.3919909843 -2.8067594893
H -2.5009206385 1.3347113775 2.7808992640
H -1.1132707026 1.7194011296 1.7677958094
H 0.2712659864 0.0356144801 3.0397224576
H -1.1162481467 -0.2965694260 4.0907694811
H -0.3679507157 1.3092083042 4.0959630975
H -3.9332860977 -3.4506648960 2.7993304270
H -4.8466497209 -3.5492426342 1.2852234744
H -3.3709615748 -4.4927791451 1.4758582962
