27
CONF232
C 2.5517656558 0.2451355105 0.8311274922
C 3.8552767290 -0.1152134415 1.5526798032
C 5.0934399614 -0.1207929302 0.6739331964
O 5.2380668507 1.1804247415 0.0799068801
C 2.1862940647 -0.7784228299 -0.2469390497
C 0.9881661110 -0.4173075825 -1.0892792197
C -0.3548598844 -0.2366172870 -0.3145199452
C -1.6461116861 -0.3146772323 -1.1946072986
C -2.9228958090 0.2818461454 -0.5164844194
F -2.8577520316 1.6169857106 -0.4544037826
F -3.0698043066 -0.2083808769 0.7229331539
F -3.9987973548 -0.0559597813 -1.2427486241
F -1.9100285472 -1.6105856549 -1.4779498517
F -1.4551402624 0.3589471197 -2.3537044465
F -0.3415290564 0.9709445991 0.3103984050
F -0.4448029243 -1.2048782138 0.6329371901
F 0.7741052220 -1.4025447062 -2.0279862051
F 1.2133533730 0.7446064555 -1.7818139428
H 1.7537905176 0.2985615751 1.5780123323
H 2.6426024874 1.2390601798 0.3821972318
H 4.0085048524 0.6003788116 2.3692508335
H 3.7627379784 -1.1076261645 2.0117331547
H 5.0182932859 -0.8897641020 -0.1087558863
H 5.9712839876 -0.3612961956 1.2906835407
H 6.0201371822 1.1599345349 -0.4842800054
H 2.0046119183 -1.7632532564 0.1950981092
H 3.0009719151 -0.8882685885 -0.9718107435
