22
CONF1
C 3.4757781381 -0.8003514397 -0.1460574859
C 2.6679747143 0.2818801861 -0.8780357547
C 1.2541860318 0.2576777271 -0.5328558457
C 0.0866522091 0.2118289722 -0.2257697568
C -1.3306261015 0.1616235478 0.1412480098
C -1.7631628550 1.5273538963 0.7078566997
C -2.1721054943 -0.1684884644 -1.1064676280
C -1.5431619486 -0.9293747733 1.2082769092
H 3.0966450075 -1.7952652803 -0.3931656467
H 3.4011660573 -0.6690014781 0.9364365034
H 4.5306241261 -0.7488379523 -0.4314232779
H 3.0808420760 1.2714652625 -0.6440504854
H 2.7782825807 0.1535329661 -1.9623885940
H -1.6202316695 2.3165899552 -0.0354696280
H -2.8223543603 1.4965922341 0.9859013373
H -1.1769446488 1.7812126613 1.5954711458
H -3.2336653926 -0.2113111726 -0.8393700514
H -1.8778413218 -1.1350018658 -1.5247899350
H -2.0364803490 0.5952562063 -1.8772803404
H -0.9520708059 -0.7150332131 2.1029834898
H -1.2426746143 -1.9083127734 0.8245223815
H -2.6008306794 -0.9740349021 1.4903093534
