43
CONF4
C -3.1314625494 -0.8786723524 2.6189386763
Si -2.0531037902 0.2817900022 1.6412602847
C -2.6449622508 2.0449735784 1.7106093548
O -0.5118376343 0.3108874431 2.2827421141
O -2.0058842071 -0.2861180644 0.1002884429
Si -1.4752733440 -0.0303249226 -1.4416085318
C -1.2972271641 1.7874058690 -1.7968922020
C -2.6750644082 -0.8741119212 -2.5863368911
O -0.0015476012 -0.7460431181 -1.6268773112
Si 1.1197897415 -1.5471663428 -0.7305106508
C 0.3390200212 -2.9745791259 0.1813655978
C 2.4656698975 -2.1080779663 -1.8880428522
O 1.7395849064 -0.5305554246 0.4191519267
Si 2.3746679673 1.0091407958 0.4560292329
C 3.6674497084 0.9973160650 1.7978970323
C 3.0540527886 1.5035285976 -1.2059424534
O 1.1680742999 2.0867114408 0.7925728395
H -3.1702638910 -0.5847670715 3.6726669941
H -2.7468972982 -1.9029944792 2.5694543998
H -4.1544123121 -0.8881539619 2.2284046247
H -2.6563390772 2.4097894881 2.7431578455
H -1.9910757277 2.7037080892 1.1294132024
H -3.6601836796 2.1362528690 1.3108007795
H 0.1094274955 -0.3550258110 1.9562138847
H -0.5572212582 2.2413395983 -1.1284294758
H -0.9586172974 1.9407012402 -2.8275422652
H -2.2486688536 2.3160807381 -1.6750392749
H -3.6700023177 -0.4214826496 -2.5233932473
H -2.7702630363 -1.9339547394 -2.3275443812
H -2.3372438820 -0.8091519603 -3.6256408724
H -0.4719722852 -2.6377639909 0.8360147679
H -0.0887158376 -3.6964801748 -0.5224057437
H 1.0775072836 -3.4995177622 0.7963820656
H 2.0831972243 -2.8497240421 -2.5970654183
H 2.8593905921 -1.2669440855 -2.4668756288
H 3.2958792745 -2.5618095704 -1.3371153217
H 4.1152900625 1.9887172555 1.9200796699
H 3.2209666989 0.7121571042 2.7568865579
H 4.4680293241 0.2837782627 1.5762480976
H 2.2898182001 1.3992785631 -1.9838956737
H 3.3670192664 2.5528271724 -1.1858149557
H 3.9213069830 0.8983265229 -1.4883324860
H 0.5420978772 1.7787090158 1.4687267483
