45
CONF203
C 7.1079816415 1.8174611029 0.4422107470
C 5.7575616790 1.5364731355 1.0972333025
C 5.0146161752 0.3732440730 0.4414990471
C 3.6630719946 0.0789774046 1.0888882362
C 2.9105000254 -1.0673168966 0.4157324072
C 1.5617755223 -1.3635011126 1.0741523683
C 0.6928244811 -2.3440008336 0.2816060724
C 0.0324986792 -1.7234290344 -0.9703102797
C -1.0213751345 -0.6915700036 -0.6520469139
C -2.2678970316 -1.1352723042 -0.2168489569
N -3.1840231625 -0.1789848481 0.0865115615
C -2.9166420466 1.1832439595 -0.0338955122
N -4.0074870235 1.8561589594 0.3540395960
C -4.8702003643 0.8745660663 0.6861183765
N -4.4430801127 -0.3871515127 0.5501102536
N -1.7410188516 1.6282807100 -0.4747149152
C -0.8235792896 0.7121747601 -0.7765720138
C 0.4899274174 1.2417973399 -1.3089058203
C 0.6081359516 2.7603416399 -1.3111015972
N -2.6864642937 -2.4253887423 -0.1199272150
H 7.6221794646 2.6543393381 0.9241583208
H 6.9852433922 2.0657261046 -0.6175817371
H 7.7631714141 0.9417663969 0.5034363980
H 5.1298507680 2.4360462612 1.0512559981
H 5.9020918300 1.3176753468 2.1633596033
H 5.6425500027 -0.5279830085 0.4812484066
H 4.8653524071 0.5946713914 -0.6250246549
H 3.0412619790 0.9856500261 1.0589644944
H 3.8081483203 -0.1545406699 2.1528684259
H 3.5276506755 -1.9760510826 0.4378559056
H 2.7735131161 -0.8259366558 -0.6475263187
H 1.0015353271 -0.4306178898 1.2266433681
H 1.7440041729 -1.7695927731 2.0767810155
H 1.3018117938 -3.2036821641 -0.0284002898
H -0.0865698783 -2.7379777765 0.9467589630
H 0.8041529765 -1.2840501681 -1.6063205966
H -0.4165858090 -2.5236474239 -1.5748354791
H -5.8711193528 1.0728059513 1.0495395153
H 0.6259081839 0.8558698236 -2.3294238908
H 1.5872180695 3.0538863377 -1.7014940082
H -1.9913282735 -3.1472940082 -0.0567804871
H -3.5543672165 -2.5742863301 0.3738511133
H -0.1684399939 3.2177020790 -1.9272821274
H 1.3093189189 0.8088658661 -0.7240428883
H 0.4981459235 3.1633646926 -0.3015822597
