34
CONF7
C 4.4335026551 1.4801407317 1.7866181049
C 3.2110813192 0.7156849031 1.3661392877
C 3.1887234146 0.0096042478 0.1573913182
C 2.0529188550 -0.6717172822 -0.2553863562
C 0.8995816645 -0.6608889094 0.5378104953
C 0.9171380735 0.0254420848 1.7561375741
C 2.0593274324 0.7067944967 2.1586636455
C -0.2821851740 -1.4334846042 0.1557270013
C -0.8775240330 -2.5014369280 0.8104981786
N -1.9041375523 -3.0374836457 0.1189983770
C -1.9867667174 -2.3025727514 -0.9837058068
N -1.0059611814 -1.3241078519 -1.0256225487
S -1.1006368442 0.1344789072 -2.1067575959
O -1.7449548131 -0.4009719436 -3.2973397981
O 0.2443470842 0.6821208951 -2.1236225080
N -2.1168372487 1.1894390268 -1.3583591053
C -1.6170860963 1.8288940909 -0.1242736873
C -3.5415723615 0.8069607984 -1.3053818221
C -2.9446369427 -2.5580745049 -1.9860067535
N -3.7704133330 -2.8310768273 -2.7516970475
Cl -0.3628527580 -3.1757743339 2.3130109709
H 4.4663074455 1.6100914787 2.8712139383
H 5.3467916671 0.9744758498 1.4614782589
H 4.4331934050 2.4784567357 1.3326592556
H 4.0787048911 -0.0116787836 -0.4655497523
H 2.0574905890 -1.2225767657 -1.1898993779
H 0.0301435972 0.0339650455 2.3820322256
H 2.0555466839 1.2416922818 3.1041924519
H -1.7652067941 1.1766653665 0.7456686404
H -0.5624287459 2.0835118513 -0.2293509422
H -2.1946245981 2.7464152438 0.0119832763
H -3.8610897600 0.4034987545 -2.2661203633
H -3.7320622069 0.0828029955 -0.5020369530
H -4.1038220138 1.7207086372 -1.0991123918
