51
CONF31
C 1.2951194024 1.7579729474 0.4678262191
C -0.1764537515 1.6302317245 0.1931567192
C -1.0140986085 1.1710999215 1.1388590572
C -2.4618367335 0.9590208636 0.9814428274
C -3.0668537497 -0.4691108947 1.1909395223
C -3.3956730125 0.6751452576 2.1269065675
C -2.9096782141 0.7011625260 3.5590834193
C -4.8058862487 1.2123702530 1.9764956386
C -2.1088404788 -1.5488289214 1.4789057312
O -1.3468501183 -1.6336802525 2.4238854733
O -2.1376698031 -2.4657576181 0.4732945809
C -1.0855001438 -3.4831127824 0.5223456279
C 0.2016394865 -2.9460089863 0.0023465399
C 1.2481631403 -2.4762942148 0.7351470918
O 2.2572207614 -2.0649583246 -0.0890716067
C 1.8403740799 -2.2741644246 -1.3827162708
C 0.5879371172 -2.8049758470 -1.3741483359
C 2.8045358081 -1.9225120954 -2.4601087801
C 3.1243692990 -0.4420280033 -2.5106337333
C 4.2149822564 0.0770197623 -1.8092497021
C 4.4931779380 1.4417064525 -1.8404659155
C 3.6842511683 2.3041008702 -2.5771286279
C 2.5950394071 1.7939125752 -3.2801580149
C 2.3169642343 0.4299504961 -3.2444329946
C -0.5820590284 2.0190554042 -1.1985495839
H 1.5473028726 1.4524128992 1.4867675253
H 1.6338190797 2.7908982707 0.3147485553
H 1.8687220609 1.1392177947 -0.2353895331
H -0.5824032793 0.8961382726 2.0973517767
H -2.9215605183 1.4613349018 0.1358198224
H -3.8242104443 -0.7380134424 0.4615532528
H -3.5716902732 0.0928200956 4.1850510655
H -1.8973916653 0.3206663478 3.6767275774
H -2.9484709443 1.7313842154 3.9305726456
H -5.5073562612 0.6168850130 2.5715821070
H -4.8528035998 2.2483883544 2.3299670679
H -5.1343093813 1.1905384797 0.9331833136
H -0.9830489398 -3.8446903348 1.5474349589
H -1.4642476121 -4.2830855853 -0.1161025377
H 1.4212385811 -2.3685433595 1.7945114088
H 0.0079059577 -3.0810801636 -2.2432642408
H 2.3628679121 -2.2426644051 -3.4081003534
H 3.7317468670 -2.4913048939 -2.3180026203
H 4.8520186019 -0.5933276863 -1.2386302577
H 5.3452426194 1.8309462089 -1.2913075166
H 3.9022396471 3.3672075846 -2.6047263928
H 1.9598107605 2.4589013445 -3.8576207189
H 1.4656304947 0.0350904148 -3.7932569919
H -0.2393546981 3.0368222359 -1.4236469949
H -1.6575604891 1.9690454682 -1.3725771042
H -0.0865105090 1.3626948673 -1.9249106574
