63
CONF40
C 2.0850328274 1.8554947657 0.1069747275
C 1.1091448926 2.1339536316 1.2464366952
N 0.5937679058 0.8779190028 1.7855681297
C 1.6826704225 0.0959035940 2.3701346518
C 2.6918893830 -0.2949261496 1.2953134713
C 3.2238433211 0.9553563550 0.5919800974
N 4.1504670028 0.6253269636 -0.4845452400
C 3.9187616363 -0.1305929296 -1.6302742468
C 2.8001059203 -0.8005568013 -2.1092346830
C 2.9184446262 -1.4901908378 -3.3189712776
C 4.1140820924 -1.5065028239 -4.0336421852
C 5.2412720880 -0.8313824201 -3.5604096045
C 5.1260349264 -0.1523125915 -2.3607251808
N 6.0410369755 0.5921112222 -1.6378241510
C 5.4715931290 1.0890281199 -0.4701420521
O 6.0046568154 1.7779505823 0.3814955484
C -0.5126705639 1.0804348401 2.7215951566
C -1.3121017731 -0.2042269021 2.9757494581
C -1.6164351295 -0.9839265845 1.6937729139
C -2.3232860894 -0.1526708966 0.6082574038
C -2.3515726805 -0.9261328714 -0.6992356619
C -3.3362025844 -1.8752940551 -0.9777242147
C -3.3064344759 -2.6174430356 -2.1540524942
C -2.2776372871 -2.3913817992 -3.0532145935
C -1.2865771784 -1.4531052780 -2.8209712727
C -1.3346550941 -0.7263947025 -1.6355756682
F -2.2460786407 -3.1052774467 -4.2026985958
C -3.6929749181 0.3651359524 1.0023909590
C -4.5398093936 -0.3158335111 1.8795492965
C -5.8091508095 0.1695924316 2.1847603872
C -6.2219222636 1.3528086469 1.5991646660
C -5.4148144844 2.0640076810 0.7264765578
C -4.1530996669 1.5588858994 0.4376130273
F -7.4519037720 1.8341017072 1.8913981315
H 2.5007089798 2.7945986117 -0.2744216486
H 1.5454609859 1.3713968563 -0.7148026352
H 0.2668091055 2.7277345393 0.8712041706
H 1.6116672778 2.7412914460 2.0289657803
H 2.1917618209 0.6633266001 3.1780527280
H 1.2717546974 -0.8107604964 2.8257139674
H 2.1998106581 -0.9605447466 0.5790377713
H 3.5267756460 -0.8463110638 1.7415363596
H 3.8294313457 1.5239217511 1.3099713294
H 1.8606729570 -0.8064146791 -1.5704674883
H 2.0593975620 -2.0311421442 -3.7009824746
H 4.1745756872 -2.0518885074 -4.9689284465
H 6.1752657900 -0.8411593157 -4.1121840346
H 6.9997754739 0.7728902452 -1.8776668069
H -1.1821787537 1.8317463353 2.2837319197
H -0.1689019333 1.4989827821 3.6883155184
H -0.7760723778 -0.8610660276 3.6709822277
H -2.2411071917 0.0804484148 3.4837962832
H -0.6775628975 -1.3412296098 1.2585740452
H -2.2042457573 -1.8804238339 1.9259005433
H -1.6888944351 0.7219483540 0.4246973145
H -4.1486022441 -2.0287356941 -0.2737867145
H -4.0680956621 -3.3544801514 -2.3825726067
H -0.5087668448 -1.2900209101 -3.5588734195
H -0.5678022463 0.0170670155 -1.4328568384
H -4.2130836312 -1.2411133284 2.3424999466
H -6.4698851764 -0.3538422612 2.8666564115
H -5.7740342793 2.9893029882 0.2903409065
H -3.5101083294 2.0996545382 -0.2518233667
