55
CONF17
C -0.9710462647 -0.1907786465 0.9809920343
C -1.8124150230 -1.1064457357 1.8761441207
C -3.2810857022 -0.7052641126 1.5605878193
C -3.2173071700 0.3220249656 0.4081917598
O -3.2074659145 1.6232225603 1.0074652714
C -4.3507841436 0.3035686877 -0.6090167498
O -4.5451314402 1.2915777747 -1.3063175441
C -5.2693588894 -0.8833744796 -0.7581690406
O -6.1411223551 -0.7387451643 -1.8581345970
C -1.8352820151 0.0048947973 -0.2802400642
C -1.9583931107 -1.2760973668 -1.1208978434
C -1.2322388317 1.1320973512 -1.1152929032
C 0.2362800043 0.8249653089 -1.4566407891
C 1.0926539791 0.5243240125 -0.2139138512
C 0.4694372304 -0.5804128020 0.6665786026
C 1.2832513501 -0.7524781773 1.9465378142
C 2.7493052174 -1.0584596450 1.6276255189
C 3.3525493290 -0.0375504195 0.7128945377
C 4.5350300827 0.5390424318 1.0269724948
C 5.2807153196 1.4008519255 0.1217714482
O 6.3627766603 1.8975979318 0.4438312072
C 4.6951128765 1.5848939202 -1.2546128488
C 3.1702541675 1.5433101822 -1.2248761451
C 2.5980025242 0.2695362480 -0.5688539929
C 2.7702835765 -0.9354268626 -1.5222206159
H -0.9297003893 0.7947348138 1.4676854265
H -1.6353389301 -2.1590898090 1.6286923282
H -1.5773987988 -0.9781960818 2.9357336585
H -3.7798974625 -0.2381529136 2.4131509642
H -3.8700444727 -1.5832502954 1.2870596508
H -3.3298073535 2.2639376194 0.2910323258
H -5.8308085517 -0.9564077499 0.1912675789
H -4.6936286384 -1.8121810082 -0.8538904739
H -6.0521419136 0.1852567174 -2.1481350412
H -0.9836835027 -1.6057353451 -1.4850957645
H -2.3885518055 -2.1070924248 -0.5556339498
H -2.5865901887 -1.0980367085 -2.0012226681
H -1.7983006157 1.2860764904 -2.0422373170
H -1.2705225212 2.0674196223 -0.5436604184
H 0.6481790115 1.6859312163 -1.9913649357
H 0.2787385351 -0.0207299310 -2.1513489324
H 1.0886240804 1.4348865327 0.4094364302
H 0.4750795543 -1.5367566689 0.1242337865
H 0.8691523140 -1.5609718686 2.5586387029
H 1.2201579781 0.1703915609 2.5404200221
H 2.7949857319 -2.0359712786 1.1249210481
H 3.3459076962 -1.1400868411 2.5410507265
H 5.0201250442 0.3045308965 1.9725157071
H 5.0946960289 0.7743400973 -1.8809755745
H 5.0637807435 2.5236702781 -1.6782376275
H 2.7873802637 1.6369169104 -2.2450776430
H 2.8087474212 2.4144648677 -0.6623234493
H 2.3438944631 -0.7073783885 -2.5026869703
H 2.2820825929 -1.8332585933 -1.1359910685
H 3.8308614130 -1.1661369955 -1.6602281801
