70
CONF32
C -2.7452904297 -0.6961662603 -1.2350794177
C -4.1609112695 -0.1719051179 -1.5550318652
C -5.1572479364 -1.1808857313 -1.0847123400
C -6.4315573482 -1.5383506664 -1.4482018623
N -6.8810607305 -2.5487814176 -0.6018987387
C -5.8985255408 -2.8563866458 0.3110267608
C -5.8126976467 -3.7774058005 1.3577125644
C -4.6154066110 -3.8039971377 2.0686590817
C -3.5253800597 -2.9578269527 1.7653983559
C -3.6102912483 -2.0343291333 0.7282628676
C -4.8117353316 -2.0055472470 0.0187960589
C -2.5390925235 -1.0634787132 0.2680616576
C -1.1292707723 -1.6303039448 0.4783816445
C -0.0473534387 -0.7108940420 -0.1040624343
C -0.3806920140 -0.4104310805 -1.5829944383
N -1.6989565319 0.2035768732 -1.7531385952
C -1.7545419092 1.5852718501 -1.2467762594
C -0.7880363410 2.4715161177 -1.9723231078
C 0.0628378252 3.3009798795 -1.3726863470
C 1.3084958102 -1.3825789375 -0.0369220806
O 1.5533828782 -2.3711987229 -0.7322816115
N 2.2941519030 -0.8156591507 0.7415407893
C 3.6460781043 -1.4181978083 0.6770092515
C 4.4316907620 -1.1117020245 -0.6036457855
C 5.2258612724 0.1923280349 -0.5992412448
N 4.4146475712 1.4104773054 -0.4489015965
C 3.5094449873 1.6171689598 -1.5832756058
C 5.2857821376 2.5788073284 -0.2796025908
C 1.9767871907 0.0978736863 1.8159570466
O 1.0362828407 -0.1192200174 2.5807708263
N 2.8237130701 1.1319821178 1.8862793026
C 2.7031771281 2.1478096803 2.9244321691
C 1.7513971566 3.2733316564 2.5245267028
H -2.6245685135 -1.6370227092 -1.7962082579
H -4.3383616719 0.7762251224 -1.0311271670
H -4.2386028359 0.0303788234 -2.6290067274
H -7.0721953804 -1.1671914242 -2.2361997239
H -7.7824261290 -2.9921857333 -0.6676815263
H -6.6304626691 -4.4453016720 1.6090316151
H -4.5114934599 -4.5092202609 2.8880594670
H -2.6206588067 -3.0456007332 2.3586900687
H -2.6397721475 -0.1384841447 0.8580506691
H -0.9367940976 -1.7867062785 1.5439972452
H -1.0655114820 -2.6076177684 -0.0193340382
H -0.0340457547 0.2293951825 0.4523187688
H 0.3791243757 0.2513418798 -2.0136077438
H -0.3638349684 -1.3519030868 -2.1445352761
H -2.7628283986 1.9696914674 -1.4409636110
H -1.5842224639 1.6757568642 -0.1594914312
H -0.8338142174 2.4268000913 -3.0609927070
H 0.1317713887 3.3485967303 -0.2880268901
H 0.7121715133 3.9584687796 -1.9429296548
H 3.5152049828 -2.5014746621 0.7630946401
H 4.2002448190 -1.0759735319 1.5555758480
H 5.1642190764 -1.9172820414 -0.7339407499
H 3.7648717349 -1.1745195026 -1.4685183806
H 5.8272183326 0.2457025501 -1.5270993184
H 5.9326859671 0.1697555658 0.2406741186
H 2.7916416873 0.7958872882 -1.6544511331
H 4.0557637007 1.6918372809 -2.5406186783
H 2.9469036183 2.5433278761 -1.4314243790
H 5.9253028832 2.4379555520 0.5978465913
H 5.9318891077 2.7463900031 -1.1596663525
H 4.6732860425 3.4734003162 -0.1257408821
H 3.4510165817 1.2920861064 1.0657292022
H 2.3557068131 1.6640703846 3.8426338941
H 3.7047540530 2.5491029827 3.1143821740
H 1.6925307576 4.0221024689 3.3206701888
H 0.7465141251 2.8796750476 2.3429343978
H 2.1010870047 3.7666579519 1.6118372748
