32
CONF42
C -2.0220939746 1.0329435021 3.4751331660
C -1.8804521072 -0.1292426558 2.5254477069
O -1.2714712052 0.3917389796 1.2899357899
P -0.9733974740 -0.5875541166 0.0685118390
S -0.0483628701 -2.2554016357 0.4369953071
O -2.3871687368 -0.6614870833 -0.6542066359
C -2.6724404391 -1.6410784055 -1.7173189514
C -3.6563790239 -2.6603769298 -1.1994201326
O -0.1844716040 0.4332341267 -0.9384270304
C 1.1643905526 0.7067721735 -0.8805401811
C 1.8404720107 0.8742802164 0.3284721302
C 3.1894450078 1.1896980551 0.3067082002
C 3.8312211633 1.3352533287 -0.9201451244
C 3.1583448401 1.1757015132 -2.1295013126
C 1.8122088184 0.8554021766 -2.1061717283
N 5.2545267182 1.6694876546 -0.9397237553
O 5.8349036470 1.7998947690 0.1364474407
O 5.8036149844 1.8038746056 -2.0316848919
H -2.6712885957 1.8054521316 3.0545747539
H -2.4677960948 0.6745285467 4.4077471905
H -1.0454321978 1.4689698152 3.7022948744
H -1.2224539572 -0.9070727632 2.9247294058
H -2.8503152432 -0.5685751167 2.2695697672
H -3.0828612370 -1.0515350227 -2.5403069293
H -1.7367279786 -2.1059956889 -2.0417812221
H -4.5740129974 -2.1741782839 -0.8568736158
H -3.2233068169 -3.2310874667 -0.3733499056
H -3.9118487365 -3.3538989880 -2.0067924859
H 1.3203749696 0.7715484811 1.2734446203
H 3.7358957621 1.3271960239 1.2308491446
H 3.6823037757 1.2940147955 -3.0692001816
H 1.2545796116 0.7174932561 -3.0254167551
