33
CONF2
C 0.8455908548 -0.4166306505 2.1633653720
N 0.9605401945 0.4226486869 0.9397012100
C 0.7596587558 -0.2995033987 -0.2813152239
C -0.5961265581 -0.4542277703 -0.7923009078
O -0.8297039871 -1.2063089907 -1.7673204748
N -1.5556273514 0.2674868454 -0.1489520849
C -2.9372811096 0.3148902870 -0.3728437936
C -3.6094177764 -0.4944377171 -1.2966880636
C -4.9850763291 -0.3431012611 -1.4004896117
C -5.6444230002 0.5879177294 -0.6037329915
C -4.8819164687 1.3393495341 0.2824381116
N -3.5571803370 1.2138829521 0.4044035884
C 1.8122195147 -0.8808554058 -0.9579800412
O 1.6547138368 -1.6275974313 -2.0492326968
C 3.1632450915 -0.6609297259 -0.5197303643
C 3.5620774207 0.3256891520 0.3582913703
C 4.9371395549 0.3444414923 0.6615609534
C 5.5800946500 -0.6549261834 -0.0229723328
Cl 7.2586947971 -1.0106117317 0.0321521026
S 4.5261194050 -1.6134870843 -1.0263836482
S 2.3079229261 1.4587506075 0.9059024945
O 2.0706805574 2.4455756203 -0.1525394721
O 2.5975270846 1.8962383566 2.2748585543
H 0.8909756475 0.2193116579 3.0475328709
H -0.1313906327 -0.9043774862 2.1249218626
H 1.6290726315 -1.1839089413 2.2023830900
H 0.6558983291 -1.6798170828 -2.1830660990
H -1.2283679006 0.9070234069 0.5672176723
H -3.0737366999 -1.2086649424 -1.9038759586
H -5.5375209798 -0.9554113856 -2.1060944094
H -6.7174177091 0.7292217013 -0.6643071749
H -5.3517870939 2.0786505204 0.9282074590
H 5.4248022848 1.0437191313 1.3276101406
