37
CONF29
C -5.4686758558 0.4303464802 -1.0534889394
C -4.9424350979 -0.4107866529 -2.0296400207
C -3.5680504245 -0.4730583724 -2.2235438563
C -2.7124139385 0.2957506486 -1.4329758929
C -3.2354227169 1.1354278043 -0.4394687789
C -4.6191728071 1.2031400026 -0.2710072827
C -2.3972782702 2.0353955141 0.4333674219
O -2.4427047358 3.2592268813 0.2921703695
N -1.6728240734 1.4128952262 1.3845924514
C -0.7348272329 2.1346875771 2.2397193509
C 0.6044812207 2.3607238835 1.5410035326
C 1.3182838078 1.0875529292 1.1811193938
C 2.3370108988 1.0485792570 0.2157686224
C 2.9626649009 -0.1411512496 -0.1086884884
C 2.5564151197 -1.2905080168 0.5616638422
C 1.5592118679 -1.1899347541 1.5237554872
N 0.9604922723 -0.0344833275 1.8165944966
C 3.2240669372 -2.5992593142 0.2670296076
F 2.4707051689 -3.6537877838 0.6481553360
F 3.4856030120 -2.7455131415 -1.0540288927
F 4.4160432522 -2.7119974621 0.9117094915
Cl 2.8415513849 2.5126395705 -0.6009150024
C -1.2308197112 0.1928566885 -1.6704036141
F -0.5958169591 1.3819713620 -1.5180737931
F -0.6337707286 -0.6789742616 -0.8078949871
F -0.9408428817 -0.2463755131 -2.9150452234
H -6.5416187574 0.4879517177 -0.9024195232
H -5.5998996500 -1.0130082295 -2.6473504814
H -3.1588880598 -1.1143628509 -2.9955704066
H -0.6075847477 1.5636541404 3.1609697581
H -1.1727677699 3.1045597727 2.4883873384
H 1.2575069551 2.9601237026 2.1909783941
H 3.7408380237 -0.1716834195 -0.8631900271
H 1.2233718771 -2.0664988626 2.0715256655
H -5.0239161295 1.8677941785 0.4856303006
H 0.4460817578 2.9591419978 0.6384387703
H -1.6603221703 0.4038199869 1.4107582577
