63
CONF81
C 0.9070962096 -0.4053799154 1.4490703302
C -0.1217660168 -1.4567695268 1.0450962989
N 0.1249611231 -1.9393040915 -0.3195091196
C 1.4518406919 -2.5608269891 -0.3952185425
C 2.5482678422 -1.5529840320 -0.0644122565
C 2.3167674522 -0.9813514351 1.3340345335
N 3.3457353235 -0.0059404146 1.7067521308
C 4.2807944400 -0.1645009881 2.7243156212
C 4.4945758679 -1.1891849542 3.6353615741
C 5.5416009805 -1.0332042706 4.5491486297
C 6.3454001201 0.1088398701 4.5485052467
C 6.1322517838 1.1418814946 3.6312897634
C 5.0945927838 0.9861715555 2.7269781710
N 4.6274556127 1.7990421850 1.7116758656
C 3.5532754839 1.2111360596 1.0620043043
O 2.9235028960 1.6770887089 0.1136996047
C -0.9083762651 -2.8892817453 -0.7572588652
C -2.2725540100 -2.2361820121 -0.9752320367
C -2.2643848080 -1.1740268126 -2.0812754637
C -3.3255227197 -0.0834663312 -1.8508904970
C -2.9687464751 0.7404838475 -0.6221615968
C -1.8260835773 1.5472038699 -0.6194029606
C -1.4527091166 2.2660191682 0.5106972790
C -2.2445245151 2.1625599898 1.6426816676
C -3.3871345449 1.3852400675 1.6851236646
C -3.7420982910 0.6756522590 0.5379810878
F -1.8837932974 2.8583312281 2.7555323618
C -3.5497119699 0.8223796608 -3.0497234425
C -2.5651008168 1.0556898949 -4.0128932463
C -2.7894364994 1.9276545048 -5.0779175437
C -4.0160383398 2.5601562298 -5.1604673468
C -5.0236475682 2.3580717724 -4.2318701198
C -4.7758414447 1.4848706577 -3.1779361359
F -4.2455285180 3.4118301331 -6.1972402448
H 0.7162545264 -0.0804772616 2.4783249356
H 0.8125759073 0.4655265608 0.7944380894
H -1.1172896892 -1.0048843747 1.0948318549
H -0.1020769952 -2.2986230593 1.7692043118
H 1.5267570685 -3.4266691088 0.2962086155
H 1.6002935206 -2.9440765049 -1.4111272718
H 2.5347078250 -0.7405287564 -0.7984264181
H 3.5278158086 -2.0420805842 -0.1103605849
H 2.4093420118 -1.8012818467 2.0559901497
H 3.8792084792 -2.0816959104 3.6467979931
H 5.7300335905 -1.8202034355 5.2720515196
H 7.1502053832 0.1988433072 5.2706414972
H 6.7526759474 2.0317546953 3.6243942457
H 4.9960992438 2.6988619019 1.4473536591
H -1.0114524643 -3.7233043382 -0.0347201371
H -0.5685379082 -3.3289269989 -1.7045312604
H -2.9943732127 -3.0239242421 -1.2210428515
H -2.6229088573 -1.7947215137 -0.0357862782
H -1.2735390173 -0.7083245464 -2.1179830733
H -2.4346657196 -1.6479810772 -3.0557316870
H -4.2820012409 -0.5793500007 -1.6406818771
H -1.2119821036 1.6186129150 -1.5127017166
H -0.5653416987 2.8900825802 0.5201264911
H -3.9813042224 1.3346813424 2.5912790179
H -4.6338684875 0.0553418587 0.5545354522
H -1.6051526026 0.5551678986 -3.9461922445
H -2.0289777889 2.1107015026 -5.8295995211
H -5.9746462959 2.8692459059 -4.3366550688
H -5.5529674122 1.3153709884 -2.4371756596
