39
CONF20
C -3.3764386531 1.2294584205 3.1156457993
O -3.5132683298 0.2767818311 2.0522123125
C -2.5928096756 0.3196579143 1.0510357515
C -1.5328722971 1.2322299382 0.9860382181
C -0.6381510425 1.1791916611 -0.0825266431
C -0.7880603314 0.2214612052 -1.0857069042
C -1.8468989032 -0.6865971600 -1.0245851984
C -2.7589204049 -0.6376810655 0.0412946918
O -3.8219624178 -1.5091524903 0.0826827575
C -3.5089515562 -2.7427229630 0.7631757686
O -2.0832524656 -1.6576920453 -1.9481005364
C -1.1658703219 -1.7568869248 -3.0463085884
C 0.5080588938 2.1736511737 -0.1604618565
C 1.8301813064 1.5516280894 -0.5106803456
C 2.5182157827 1.8627813720 -1.6664545262
N 3.7058862626 1.3416210199 -2.0167606459
C 4.2146799683 0.4557778878 -1.1412282851
N 3.6508687110 0.0588383515 0.0125782114
C 2.4645405614 0.5992228530 0.3277674296
N 1.9123228270 0.2319297496 1.5160207780
N 5.4014170275 -0.1403734850 -1.4797297192
H -2.4199700557 1.1033722253 3.6360445087
H -3.4610660380 2.2550363173 2.7384030372
H -4.1979766478 1.0218771331 3.8016898106
H -1.3949062405 1.9793702550 1.7590181039
H -0.0725325392 0.1904545925 -1.8985487542
H -3.2312135720 -2.5454463003 1.8051787414
H -4.4135614744 -3.3530943184 0.7316425223
H -2.6911521116 -3.2655936218 0.2538412791
H -1.5258057230 -2.5869330428 -3.6546717454
H -1.1639528073 -0.8363519730 -3.6412350229
H -0.1508596450 -1.9709593964 -2.6919438922
H 0.5795436076 2.7032430717 0.7984304507
H 0.2746818201 2.9327738725 -0.9174901764
H 2.0882618093 2.5857653598 -2.3609224304
H 2.3109422492 -0.5731032653 1.9754732945
H 0.9228286127 0.3749026002 1.6535056663
H 5.9551907174 0.3321723176 -2.1770925956
H 5.9165491085 -0.5767264817 -0.7310824019
