45
CONF317
O 2.7756892142 -1.2908171012 2.8345843464
C 2.6191808680 0.1223617917 2.7292974203
C 2.3373618840 0.5748299806 1.3094699297
O 3.4896866124 0.2694293078 0.4754675837
C 3.1184270587 -0.5852217690 -0.5956109818
O 3.2619402752 -1.9524400615 -0.2382294150
C 4.0025063006 -0.2481210870 -1.7903963075
O 3.9097808695 1.1198890655 -2.1580144105
C 1.6136988162 -0.3389040079 -0.7957865429
O 0.9791842875 -1.3822355828 -1.5120039637
C 1.1351550344 -0.1018316487 0.6448911245
O 0.0221864311 0.7877445010 0.7940417701
C -1.2315624821 0.2216651274 0.5607740483
O -1.4491237915 0.1746525373 -0.8463056295
C -2.6862783580 -0.4973539175 -1.1503725852
C -2.6497263974 -0.7778297436 -2.6394361854
O -1.5998112129 -1.6909828729 -2.9571492873
C -3.8333748501 0.3839098284 -0.6708656367
O -3.8892719914 1.6298766747 -1.3780043077
C -3.6910817750 0.6320165302 0.8416428010
O -4.6897942458 1.5386990280 1.2967797826
C -2.2851938649 1.1213370534 1.2060463615
O -2.1715493205 1.0982748500 2.6257961876
H 3.3883754048 -1.5650735646 2.1360386440
H 1.7699335024 0.4007086368 3.3635649413
H 3.5121140922 0.6486621593 3.0979074197
H 2.1884334235 1.6623535588 1.2990678848
H 4.1889287520 -2.2134942707 -0.3356368154
H 3.6729832620 -0.8401629863 -2.6493764814
H 5.0396313772 -0.5308923797 -1.5449566419
H 4.1619161034 1.6387600644 -1.3816577089
H 1.4830036022 0.5830397720 -1.3712214146
H 1.3181981166 -2.2202162529 -1.1637879815
H 0.9042670537 -1.0640156122 1.1228626400
H -1.2844624402 -0.8012394850 0.9782784311
H -2.7255945841 -1.4572946404 -0.6087217211
H -3.5930702187 -1.2420822955 -2.9452264475
H -2.5333006191 0.1670363971 -3.1898118504
H -0.7980976986 -1.3922216224 -2.4931043085
H -4.7933166956 -0.1118167369 -0.8537648456
H -2.9826107837 1.9610332604 -1.4607649267
H -3.8678114362 -0.3149990035 1.3683190149
H -4.6935091055 2.2743778719 0.6657692608
H -2.1368232588 2.1424734997 0.8167692913
H -1.3072169044 1.4661152517 2.8519714180
