60
CONF2
C 0.7852016313 -1.1268072971 1.2003155738
C -0.5889950900 -1.7910489380 1.3160361112
C -1.7946655450 -0.8788590142 0.9539736813
C -1.4420743959 0.5777636153 0.8172493410
C -0.2873235769 1.1052787049 1.3376347271
O -0.0365076825 2.4059256674 1.4136584993
C 0.7819582390 0.2123510882 1.9306556034
O 0.4660347406 0.0058371123 3.3029945887
C 2.1512341362 0.9004893225 1.8272507622
O 2.6078369595 1.4300420603 2.8476221615
C 2.7637265066 0.9268991834 0.5286959541
C 3.8749222919 1.8293641776 0.1903842686
O 4.2666687239 1.9314464780 -1.0095594090
N 4.4634841713 2.5442025816 1.1594851336
C 5.5197719748 3.4961792224 0.8490074147
O 5.0394074392 4.6747717398 0.2193128573
C 2.2407433716 0.1224597479 -0.4844693530
O 2.6728411787 0.2253419172 -1.7140752846
C 1.2397779299 -0.9872846577 -0.2644444220
N 1.7452970425 -2.2866721714 -0.7356437587
C 3.1161571094 -2.5959619567 -0.3239620759
C 1.5571063304 -2.5533469546 -2.1623728147
C -2.4516486507 1.4662921408 0.3332471675
O -2.3186802377 2.7326879880 0.4590382953
C -3.6189962953 0.9312299670 -0.3616938589
C -4.6239858284 1.8423279194 -0.7945722877
O -4.6045091936 3.1434454272 -0.4735077963
C -5.6767241426 1.3962023890 -1.5930467562
C -5.6752168391 0.0949841947 -2.0428883634
C -4.6696418873 -0.7910970774 -1.6505988718
Cl -4.7244876890 -2.3604552823 -2.4711324639
C -3.6689565227 -0.4388824468 -0.7461686551
C -2.6284716777 -1.4478995182 -0.2230769181
C -3.3037510025 -2.7218116661 0.3247485114
O -1.7073487981 -1.7424382260 -1.2881111645
H 1.5105634592 -1.7591845630 1.7239556341
H -0.5776617419 -2.6727808379 0.6718110104
H -0.7079296388 -2.1424596177 2.3429997301
H -2.4906340044 -0.9179388347 1.8038627870
H -0.8713175578 2.8578177789 1.0706871074
H 1.0213955528 0.6410891985 3.7918324487
H 4.0719735238 2.4775643894 2.0936982902
H 5.9708809195 3.8026889294 1.7941717707
H 6.2688862587 2.9977538450 0.2235304973
H 4.8239827739 4.4473223877 -0.6951369659
H 3.4082168176 0.9705793932 -1.6747851254
H 0.3664020542 -0.7432514224 -0.8821639256
H 3.2579132676 -2.3902190696 0.7411859179
H 3.2999604368 -3.6627846254 -0.4884718650
H 3.8759720495 -2.0301754548 -0.8916860805
H 1.6950777436 -3.6272158463 -2.3356839257
H 2.2688738833 -2.0109139388 -2.8046931789
H 0.5397950814 -2.2830726546 -2.4574539876
H -3.7275950041 3.3000875476 -0.0229716275
H -6.4486076916 2.0949668933 -1.8952850377
H -6.4512935524 -0.2465914997 -2.7187337485
H -3.6127745908 -3.4043603588 -0.4629184115
H -2.6065134270 -3.2570735014 0.9722489353
H -4.1828082265 -2.4527992691 0.9178795650
H -2.1729427803 -2.2620057991 -1.9579389147
