42
CONF3
C 3.7613305133 -1.4703024457 1.4161370311
C 3.5667625152 -1.2656508280 0.0519613808
C 2.3854439005 -0.6932978248 -0.4053644152
C 1.3825479960 -0.3018546379 0.4894050056
C 1.5817632414 -0.5196274663 1.8513895805
C 2.7628186145 -1.0991183052 2.3105956767
C 0.1034007088 0.3411313893 -0.0927061136
C -1.0371388543 0.5247900244 0.9256591626
C -2.2940614572 -0.0546988636 0.7658492500
C -3.3131948802 0.1922934695 1.6852210134
C -3.0919473028 1.0306208218 2.7716377567
C -1.8473435093 1.6403137358 2.9229125197
C -0.8354547882 1.3978404294 2.0027696669
C -0.3245527609 -0.4914564736 -1.3196657608
C -0.4034995212 0.0823658086 -2.5928932492
C -0.7492859790 -0.6565686610 -3.7192422666
C -1.0255287461 -2.0124212924 -3.6037057023
C -0.9430674014 -2.6208662426 -2.3571501670
C -0.5914477757 -1.8680769121 -1.2421678541
Cl -0.4939707108 -2.7519265512 0.2804634677
N 0.4481658469 1.7289767944 -0.5247108003
C -0.4861625170 2.6876720370 -0.8713485695
C 0.2274264626 3.8106809166 -1.1897771391
N 1.5787609716 3.5776200365 -1.0410200283
C 1.6758687110 2.3215825549 -0.6427018763
H 4.6792529755 -1.9238548368 1.7765640933
H 4.3323529140 -1.5568669804 -0.6602896504
H 2.2431164610 -0.5484600875 -1.4721742210
H 0.8080222410 -0.2715265723 2.5667594696
H 2.8933010330 -1.2684043970 3.3749264388
H -2.5015271736 -0.6906047856 -0.0863562709
H -4.2848983552 -0.2690791416 1.5395366417
H -3.8857963137 1.2226163412 3.4866008268
H -1.6666910277 2.3161868823 3.7528885226
H 0.1164318790 1.9087482649 2.1124658671
H -0.1793429558 1.1347845571 -2.7141901515
H -0.7949610055 -0.1655792533 -4.6855319241
H -1.2973771663 -2.6026428502 -4.4724792761
H -1.1451649864 -3.6799222965 -2.2438859077
H -1.5452807571 2.4823624184 -0.8587412801
H -0.1561220609 4.7693314979 -1.5116016231
H 2.5965686061 1.8071815702 -0.4130724282
