28
CONF6
C -2.9172060992 0.0447436272 -1.1758226113
N -1.9867021003 0.6023593814 -0.1968312465
C -1.8318454877 2.0354324953 -0.0733810339
O -0.5417542078 2.4147479414 -0.5508842998
C 0.4436815476 1.9051390030 0.3100050694
N 0.0652424417 0.5853772109 0.8487790076
C -0.9815973475 -0.1328932762 0.3470402080
N -0.8711431532 -1.4537098490 0.3861598493
N -2.0459250719 -2.1960956040 0.4932463490
O -3.0218329967 -1.7183134850 1.0808748305
O -1.9883514792 -3.3330428893 0.0484353529
C 1.1217494774 -0.0992011487 1.6005087718
C 2.2339684084 -0.6203498557 0.7471897518
C 3.5223480220 -0.1645611177 0.7078733184
N 4.3823721807 -0.7959634864 -0.1543829610
C 3.7501375675 -1.7372141521 -0.7754690587
S 2.0579853766 -1.9474053508 -0.3786052848
Cl 4.4843096223 -2.7603759037 -1.9565707983
H -2.4968785035 -0.8626405878 -1.6171993098
H -3.8781559941 -0.2041381375 -0.7150375170
H -3.0633268988 0.7748470655 -1.9769775555
H -2.5710918944 2.5391705667 -0.6967799391
H -1.9487090973 2.3437500562 0.9772554975
H 0.6126901613 2.5758778316 1.1715691345
H 1.3689766202 1.8232676526 -0.2757246075
H 1.5516804466 0.6277450900 2.3024152799
H 0.6535040011 -0.8974949394 2.1806207729
H 3.8958750243 0.6509418721 1.3192788263
