54
CONF9
C -4.9353283834 -1.9882276505 1.7078558353
C -3.9690239282 -2.3972497069 2.8181841396
C -3.3311401859 -1.1418140720 3.5074599786
N -2.2789172396 -0.6994715425 2.6078686996
C -1.4527742024 -1.7582103976 2.0145302021
S -2.4745480893 -3.2890633774 2.0964804283
C -1.4101509717 -0.9141471713 0.6909440700
C -2.2643818083 0.0951233766 1.4832605017
O -2.8063402310 1.1560847354 1.2322659615
N -0.1812806367 -0.4904471895 0.1004689575
C 0.6730908714 0.3190827013 0.7829581967
O 0.4935650386 0.6300904755 1.9500182196
C 1.8685573983 0.8859137044 0.0120425090
C 1.5837904315 2.3111913080 -0.4728564725
C 0.2848940192 2.7637440784 -0.7000444986
C 0.0701277410 4.0550919550 -1.1721204568
C 1.1456149735 4.8984424066 -1.4288817889
C 2.4434558125 4.4485286549 -1.2035389395
C 2.6623914662 3.1612393330 -0.7267295602
C 2.3184766591 0.0995564153 -1.2059382505
O 1.6033522293 -0.4557994935 -2.0075141911
O 3.6724986809 0.1516854891 -1.3074326878
C 4.2620303625 -0.3475775082 -2.4831596732
C 5.1247360665 -1.4238609872 -2.3627185981
C 5.7785233867 -1.8846804308 -3.5021134328
C 5.5610245040 -1.2705400194 -4.7315118142
C 4.6890650196 -0.1884474865 -4.8251730697
C 4.0311774872 0.2846484034 -3.6951750497
C -4.4053162136 -0.1231832066 3.9268605474
O -5.1386002426 -0.4193559628 4.8402387253
O -4.5302009894 1.0326930453 3.2798932560
C -4.6409305521 -3.3274611776 3.8202325188
H -5.2651208297 -2.8699318132 1.1532014966
H -4.4750982676 -1.2976093139 0.9950470983
H -5.8182532429 -1.5010630235 2.1384310371
H -2.8629210324 -1.4700010720 4.4427439421
H -0.4845297699 -1.9047074970 2.4995222461
H -2.0340878964 -1.3889585729 -0.0718679784
H 0.0248206155 -0.6902614134 -0.8719869022
H 2.6938093591 0.9283051825 0.7270833231
H -0.5680604161 2.1262927405 -0.4907819582
H -0.9457015930 4.4013933849 -1.3316707563
H 0.9736340525 5.9050817484 -1.7955116295
H 3.2886980805 5.1027369809 -1.3913951403
H 3.6750772295 2.8125541001 -0.5478056739
H 5.2784723382 -1.8844606308 -1.3932349470
H 6.4589577798 -2.7261082434 -3.4249476380
H 6.0717254085 -1.6332600683 -5.6170213246
H 4.5190113160 0.2930505218 -5.7823593918
H 3.3489166767 1.1261260627 -3.7477862861
H -3.8848350803 1.1684596183 2.5374696097
H -3.9508266951 -3.6147454329 4.6173225175
H -4.9907741503 -4.2349200749 3.3191503135
H -5.5003530866 -2.8215528594 4.2680282564
