35
CONF682
C -1.1070541100 2.6540851531 1.3037015394
C -2.2510239697 2.3743000096 2.2711352942
C -1.8058309762 1.5559899110 3.4577125247
Br -3.3306292875 0.8433704924 4.4761029162
Br -2.9478441732 4.1374819028 2.8473955648
O -0.8034342660 1.4114809994 0.6181022603
P 0.6287686193 0.7313442749 0.8168352367
O 1.1189208992 0.5555524216 2.2019692661
O 1.5346858393 1.6619339124 -0.1274491758
C 2.9662718499 1.7085868028 0.0426674129
C 3.6623558055 1.3227950637 -1.2436987332
C 3.2975201608 -0.0305610878 -1.8038261280
Br 3.9414631820 -1.4489150393 -0.5680018879
Br 3.2183896552 2.6398859049 -2.6747777080
O 0.4486027450 -0.6047073193 -0.0462400490
C 0.4171285395 -1.9105397594 0.5696792536
C -0.9485920984 -2.5428671910 0.4185307112
C -1.5822270878 -2.3892313158 -0.9422415809
Br -0.4614166964 -3.2892562979 -2.3123922735
Br -2.2431816923 -1.7364384657 1.7113230528
H -0.2305599054 3.0426189623 1.8355303017
H -1.4150889334 3.3723826490 0.5413496128
H -3.0757181072 1.8963487402 1.7396048447
H -1.2435681056 0.6838595709 3.1210097165
H -1.2025837657 2.1363460633 4.1554683303
H 3.2828337941 1.0264041311 0.8413064905
H 3.2321480964 2.7306183176 0.3245110668
H 4.7415789134 1.4189505137 -1.1067169858
H 2.2203956001 -0.1671307705 -1.8923701656
H 3.7955015952 -0.2255458609 -2.7507569627
H 1.1442633786 -2.5185519039 0.0220034710
H 0.7155004957 -1.8473609222 1.6196304387
H -1.6483567542 -1.3449966283 -1.2421021115
H -2.5549451955 -2.8733777397 -0.9924089161
H -0.8860557018 -3.5916943357 0.7166483012
