35
CONF20
C 5.2634137687 -1.0475908325 0.6416242747
O 4.1862906144 -1.5802203294 -0.1224175375
C 2.9607309340 -1.0014521235 0.0306517157
C 1.9307158714 -1.5550883385 -0.7373149825
C 0.6508209746 -1.0384770018 -0.6498638393
C 0.3602735607 0.0362526130 0.1978859020
C 1.3905276643 0.5782883354 0.9569334075
C 2.6869250475 0.0678990236 0.8825923299
C -1.0430851758 0.6274115960 0.2139507919
C -1.2360059837 1.4288819325 -1.0745798490
C -2.1726503107 2.6033834593 -1.1482529833
C -0.6796153967 2.8145420432 -1.1708818098
C -2.0895014082 -0.4686062560 0.3703568997
C -3.2049110268 -0.6106659657 -0.4475225307
N -4.1278723507 -1.5625017111 -0.2533733866
C -3.9202709050 -2.3718109862 0.7842042389
N -2.8948533393 -2.3331958941 1.6450406190
C -1.9894315795 -1.3816624537 1.4242536168
O -1.1279210652 1.4857148720 1.3653606680
H 5.4464627404 0.0059142072 0.3926105562
H 5.0738300112 -1.1419290638 1.7188867538
H 6.1394804003 -1.6401955664 0.3750651152
H 2.1567003175 -2.3922983536 -1.3885990567
H -0.1407467209 -1.4875755548 -1.2439658517
H 1.1842894472 1.4059256131 1.6245081976
H 3.4627298473 0.5128991982 1.4932600121
H -1.1529132920 0.8187078764 -1.9707895868
H -2.7327299059 2.7506266466 -2.0659173717
H -2.6996066645 2.9040890017 -0.2480733506
H -0.2292148366 3.2233032406 -0.2730771407
H -0.2156210705 3.1126929687 -2.1042197305
H -3.3685009579 0.0617189001 -1.2870156674
H -4.6642063281 -3.1501739927 0.9521730914
H -1.1408774548 -1.3330190469 2.1062549974
H -2.0626545325 1.6582118321 1.5263457053
