59
CONF15
C 7.3095243033 -1.6621739150 0.9685883991
C 5.8268559014 -1.3765079628 1.2057287969
C 5.3374844917 -0.3522991157 0.1718048761
N 3.8894879005 -0.2219433302 0.2256421898
C 3.0583072607 -1.2451133449 0.5201264517
N 1.7302610053 -1.1979334785 0.4128859373
N 1.3211562253 -0.0206716015 -0.0948452320
C 0.0170207409 0.1476580226 -0.2299075558
C -0.9359386418 -0.8873876087 0.1423482057
C -2.1889194691 -0.6721357764 0.5900170013
C -3.1457815435 -1.6965385927 0.9833520743
C -4.3133840298 -1.3114736671 1.6614505895
C -5.2563769110 -2.2445142631 2.0673267304
C -5.0494911212 -3.5940636119 1.7983114322
C -3.9014723935 -3.9997679590 1.1130995856
C -2.9663960707 -3.0645393724 0.7093639876
C -6.0713790661 -4.6203269996 2.1795394158
F -6.8172701717 -5.0090056365 1.1098464230
F -5.4985310668 -5.7462740367 2.6740121927
F -6.9364246419 -4.1660989084 3.1143343748
C -0.3532280292 1.4222829904 -0.8055720557
C -1.5463486933 1.7626490684 -1.3428365953
C -1.8692582620 3.0443915973 -1.9456162404
C -3.0317851100 3.1556610605 -2.7288934490
C -3.3778125568 4.3470407046 -3.3463070989
C -2.5652228967 5.4680665705 -3.1910419982
C -1.4171371446 5.3884423843 -2.4004340157
C -1.0777767105 4.1967364065 -1.7849113422
C -2.9529673559 6.7736489103 -3.8116552362
F -1.8721020729 7.5207613906 -4.1448572239
F -3.7019950725 7.5359289242 -2.9680072600
F -3.6887987589 6.6084049491 -4.9365756683
N 3.5958601182 -2.3843010549 1.0288972369
C 5.0221820178 -2.6645726067 0.9752209065
C 5.6079281257 -0.8520717876 2.6291151328
H 7.4889359936 -2.0437026133 -0.0422737545
H 7.6786228522 -2.4044033839 1.6837484713
H 7.9028473575 -0.7513320979 1.0984544492
H 5.6695887542 -0.6610384038 -0.8328341917
H 5.7852374542 0.6265608696 0.3807428302
H 3.4162615017 0.5658273391 -0.1970541834
H -0.5387784895 -1.8975975058 0.1083614826
H -2.5270810925 0.3525888824 0.7284795884
H -4.4749928196 -0.2595774266 1.8778204756
H -6.1481333408 -1.9254823377 2.5944014821
H -3.7486891205 -5.0515226614 0.8946834323
H -2.0899577007 -3.3957567860 0.1636157083
H 0.4728050222 2.1286680371 -0.8465241009
H -2.3330820154 1.0145088241 -1.3921846445
H -3.6633179347 2.2819857817 -2.8603152545
H -4.2735796231 4.4063821136 -3.9544201871
H -0.7934544313 6.2656956156 -2.2669778095
H -0.1935343940 4.1612631408 -1.1582097124
H 2.9366145126 -3.1376829085 1.1436296131
H 5.3089985101 -3.1022167636 0.0044014049
H 5.2636195968 -3.3972517240 1.7536971692
H 5.9374180287 -1.5936026851 3.3640889338
H 4.5559265406 -0.6268579818 2.8206698850
H 6.1874541300 0.0625860093 2.7901427409
