30
CONF1
C -5.7001448728 -0.0954003912 0.1051972248
C -5.0346645903 0.5284787958 1.1545747551
C -3.6525019759 0.5898348570 1.1228023073
C -2.8916792755 0.0362690079 0.0861870116
C -3.6152015401 -0.5861666324 -0.9329302865
C -4.9956621181 -0.6591263015 -0.9528626785
F -2.9340771638 -1.1300943189 -1.9653267903
C -1.4047149220 0.2020510005 0.0703653468
O -0.8828490555 1.2751723418 0.3390479112
N -0.6968207893 -0.9355833277 -0.2445467003
C 0.7069418875 -1.1176176913 -0.3902136793
O 1.1232528463 -2.2131298868 -0.7183462155
N 1.4446241674 -0.0016946040 -0.1278008724
C 2.8360730859 0.0999394366 -0.1899108622
C 3.7025682511 -0.9331824554 -0.5551739781
C 5.0735881099 -0.7094995787 -0.5797660083
C 5.6046764613 0.5304748413 -0.2460494612
C 4.7546436456 1.5731262784 0.1203625409
C 3.3866562736 1.3430818766 0.1429097683
F 2.5561765922 2.3388688779 0.4939521839
Cl 5.3922215285 3.1222006858 0.5393678562
F 6.9214665095 0.7378627048 -0.2714819715
Cl 6.1542352223 -1.9932228654 -1.0343293932
F -3.0176411376 1.1736887815 2.1454539419
H -6.7833136576 -0.1448924169 0.1125306834
H -5.5644447293 0.9642119171 1.9929537023
H -5.4925901194 -1.1440868325 -1.7841906030
H -1.2077691417 -1.7779027622 -0.4662680903
H 0.9114199984 0.8290011849 0.1359351665
H 3.3055303188 -1.9026628247 -0.8167843050
