22
CONF2
Cl 5.2350362546 -0.0040963962 0.5479922862
C 3.5055031270 0.0060591134 0.3582007865
C 2.7664235052 0.9752198822 1.0272756703
C 1.3866568941 0.9945210366 0.8828140361
Cl 0.4773335686 2.2030960987 1.7604268586
C 0.7181397975 0.0682958804 0.0770614867
C 1.4775041583 -0.9012782333 -0.5759222321
C 2.8601638223 -0.9381521550 -0.4430823130
Cl 3.7574023191 -2.1688521772 -1.2866050355
C -0.7546137961 0.0694411881 -0.0814898936
C -1.5153364309 -0.9001328027 0.5699062164
C -2.8980445433 -0.9348776093 0.4369694099
Cl -3.7970151212 -2.1656640096 1.2785179151
C -3.5420524060 0.0115060555 -0.3628218848
Cl -5.2715886287 0.0040125835 -0.5527284021
C -2.8016139470 0.9807280059 -1.0303007190
C -1.4218270133 0.9978916570 -0.8857646247
Cl -0.5108165585 2.2066114416 -1.7614239630
H 3.2665301496 1.7000590064 1.6580998691
H 0.9802960261 -1.6321269064 -1.2040850886
H -1.0191703570 -1.6326840718 1.1969084290
H -3.3006951935 1.7072675015 -1.6599775438
