44
CONF7
C 0.0510315243 -2.7083255140 -0.1813877524
C -1.0870792499 -1.6835339952 -0.3104393487
C -2.4141545348 -2.3611797125 0.0378065946
C -1.1092039465 -1.1264104235 -1.7516770543
C -0.0193394874 -0.0356676947 -1.8106430916
C 0.3118183019 0.3251311043 -0.3390631658
C 0.4251384480 1.8353832851 -0.0847865211
C 1.5766721789 2.4379081967 -0.8473953562
C 1.3645523067 3.2106376495 -1.9913160044
C 2.4293619649 3.7414086216 -2.7166023713
C 3.7226088709 3.4902615520 -2.2798380745
Cl 5.0828089542 4.1586145326 -3.1849318876
C 3.9741102326 2.7298145670 -1.1435917904
C 2.8946998541 2.2094960843 -0.4375304712
C -0.7810707532 -0.3847393479 0.5078343876
O -1.9534908309 0.4377421623 0.6299039421
C -0.2856480283 -0.5702786331 1.9433063636
N -1.2214455175 -1.2754378925 2.8157013346
C -2.4095986167 -0.8599904640 3.2940420696
N -2.9712173644 -1.8152935875 4.0295966443
C -2.0532534021 -2.8190185682 3.9649565218
N -0.9747731399 -2.5397255375 3.2434259829
H 1.0227329842 -2.2888260450 -0.4590431834
H 0.1220834061 -3.1029521762 0.8359599700
H -0.1508296254 -3.5492852236 -0.8532194099
H -3.2433530673 -1.6488207579 0.0295660722
H -2.3814580278 -2.8476142171 1.0172677727
H -2.6240623046 -3.1360659504 -0.7081489678
H -2.0958934292 -0.6982773273 -1.9706766790
H -0.9509970516 -1.9276224570 -2.4801439139
H -0.3743602100 0.8445638845 -2.3560991367
H 0.8766559263 -0.3882953182 -2.3290756849
H 1.2735647777 -0.1265274560 -0.0692599827
H 0.5689326309 2.0200612428 0.9864723741
H -0.5071942385 2.3257533149 -0.3802500768
H 0.3498556708 3.4073643253 -2.3256068333
H 2.2517363125 4.3408601230 -3.6025342220
H 4.9914117240 2.5502714970 -0.8139371520
H 3.0847872756 1.6160611225 0.4530098227
H -2.3270835842 0.5827812668 -0.2491095433
H -0.1003195523 0.4155854820 2.3813599673
H 0.6479815815 -1.1334612940 1.9561464433
H -2.8128072191 0.1212419713 3.0879928627
H -2.1739119561 -3.7735929108 4.4619586443
