47
CONF161
C -7.9482783983 0.4717351704 0.9566614637
O -7.1040945988 -0.6749515946 0.6505643718
P -5.6544520154 -0.7940956726 1.3095001614
S -5.4944636541 -0.7244240675 3.2408137663
O -5.1212782618 -2.1698981154 0.7072849068
C -5.1527062965 -2.4102884255 -0.7353984699
O -4.8888018089 0.3975545904 0.5010626517
C -3.6411438899 0.8764316421 0.9101558746
C -2.4999241734 0.1035564382 0.7326167871
C -1.2645619321 0.6219294010 1.1030589056
C -1.1766906955 1.9153214078 1.6239313961
C -2.3337530206 2.6825052324 1.7868003680
C -3.5735122856 2.1568314341 1.4399544583
S 0.3722367595 2.6239434966 2.1725695445
C 1.5608763757 1.8606691492 1.0748326246
C 2.6496586468 1.1822583912 1.6224416969
C 3.6231181241 0.6331242041 0.7916529453
C 3.4737489860 0.7497057238 -0.5835890938
C 2.3919480266 1.4184615580 -1.1462553600
C 1.4413036014 1.9895671392 -0.3121808025
O 4.4276285335 0.2429489163 -1.4656245081
P 4.9038136436 -1.3072142783 -1.4651232878
S 3.5332453418 -2.6522546388 -1.2027227317
O 6.0779895803 -1.2270972529 -0.3736818603
C 6.8040328108 -2.4392493448 -0.0168153812
O 5.6026465452 -1.4277029719 -2.8936072805
C 6.6891663197 -0.5218777343 -3.2651483903
H -8.1515032306 0.5074264639 2.0300653761
H -8.8718085112 0.3122275056 0.4015132415
H -7.4621432509 1.3934626187 0.6266312230
H -6.1857502639 -2.5355074795 -1.0651620784
H -4.6755626996 -1.5828147446 -1.2667399343
H -4.5887630859 -3.3296701503 -0.8876508851
H -2.5734455835 -0.8959009793 0.3166091482
H -0.3733099398 0.0164234685 0.9787860261
H -2.2699196957 3.6914041963 2.1819142460
H -4.4803219580 2.7392812554 1.5629721891
H 2.7420343316 1.0782534891 2.6982658582
H 4.4766930301 0.1133864804 1.2122118928
H 2.3099034970 1.4968359412 -2.2248979885
H 0.6004912090 2.5250048035 -0.7407349641
H 7.2825141228 -2.8675351479 -0.9020216416
H 7.5585583707 -2.1260325488 0.7038639779
H 6.1208413541 -3.1620925614 0.4361486221
H 7.4861164198 -0.5626614122 -2.5189794464
H 7.0524925391 -0.8848181436 -4.2257760713
H 6.3051299801 0.4958373478 -3.3637275779
