47
CONF292
C -4.5887580465 -0.8814787027 -2.6115815460
C -3.5948803163 0.2363231505 -2.3010922735
C -3.4627455412 0.5072996051 -0.8024069903
C -2.4532374580 1.6106700172 -0.4873407021
C -2.3211291408 1.9296016479 1.0100570042
C -3.5063618820 2.7656213532 1.5230769670
C -3.6660290954 2.7662254938 3.0436161045
C -1.0228069040 2.6698469592 1.2894956178
O 0.0747256943 1.7575274397 1.0207786348
C 1.3206378059 2.2580176995 1.1706702677
O 1.5374879880 3.4089099396 1.5279144666
C 2.3791631385 1.2973985562 0.8657726268
C 2.1553897299 0.0344502421 0.4451303716
C 3.1494386457 -0.9676498506 0.1188098105
C 4.5391615955 -0.7457348151 0.2117390603
C 5.4406917519 -1.7369024932 -0.1121937913
C 4.9861212332 -2.9950035793 -0.5437344063
C 3.6133659779 -3.2411374064 -0.6451095884
C 2.7189095291 -2.2311151357 -0.3142313871
O 5.9534386821 -3.8973355902 -0.8357582342
C 5.5427644785 -5.2000849303 -1.2797520736
H -4.6702547493 -1.0587089526 -3.6886904693
H -4.2801644326 -1.8203433884 -2.1383075949
H -5.5869876485 -0.6313737626 -2.2351523378
H -2.6084700255 -0.0219692215 -2.7089716538
H -3.9065012691 1.1595180102 -2.8075214307
H -3.1531310535 -0.4166362024 -0.2935638257
H -4.4509287705 0.7659148084 -0.3994187984
H -2.7319105267 2.5326258710 -1.0190159813
H -1.4747494093 1.3071451309 -0.8803485416
H -2.2948688426 0.9827262626 1.5702532618
H -3.3965569072 3.7953203570 1.1546546000
H -4.4270121282 2.3790597291 1.0727478919
H -2.7948878171 3.1928993321 3.5502111520
H -3.8042231314 1.7457736803 3.4173685560
H -4.5395892597 3.3542038846 3.3420371387
H -0.9249627516 3.5470539413 0.6379046718
H -0.9498225332 3.0005508504 2.3300160410
H 3.3800994165 1.6936610523 1.0014186035
H 1.1221204675 -0.2862993355 0.3295164677
H 4.9175377583 0.2157635997 0.5426724608
H 6.5097356072 -1.5651618525 -0.0398335977
H 3.2357908327 -4.2008158259 -0.9749794732
H 1.6528914215 -2.4260799999 -0.3937469521
H 6.4648178291 -5.7551490265 -1.4514066702
H 4.9720110914 -5.1320943028 -2.2126279120
H 4.9446672457 -5.7030343457 -0.5116972228
