78
CONF433
C -1.4670383222 -1.6787621619 -0.0407545781
C -1.2836876343 -3.1295998627 0.3845141402
O -2.4902145287 -3.4113416458 1.1750534482
C -3.0337180849 -2.2555788996 1.6429013062
O -3.9993127998 -2.2664988412 2.3706807586
C -2.2031904785 -1.0954698360 1.1565447339
C -2.8615972045 0.2488750590 0.8367053739
C -4.1312372939 0.1215319814 0.0019403448
C -5.3638428388 0.0403197025 0.6519688877
C -6.5423253235 -0.1138933759 -0.0809572464
O -7.7917864534 -0.2053822548 0.4602593555
C -7.8882039908 -0.1673655049 1.8900501843
C -6.4902402637 -0.1816108716 -1.4778750025
O -7.6521688569 -0.3275685251 -2.1827034333
C -5.2524814661 -0.0837003392 -2.1231887072
O -5.3341317170 -0.1468597547 -3.4876267372
C -4.1080673811 -0.0631130177 -4.2267672241
C -4.0763936262 0.0718046553 -1.3929703372
C -1.8309805339 1.1310821214 0.1390327096
C -2.1471621509 2.5011580823 0.0342960345
C -1.3000955484 3.3059998448 -0.6862947120
C -0.1701570183 2.7995169854 -1.3194694337
O 0.4861738661 3.8016071699 -1.9831046102
C -0.2721594583 5.0079352359 -1.7418615150
O -1.4071409414 4.6485156590 -0.9201597923
C 0.1622323614 1.4715712214 -1.2389065223
C -0.6769275679 0.6239480466 -0.4790138582
C -0.2541570009 -0.8253807105 -0.3429175862
O 0.6607695438 -1.0436654032 0.7781019134
C 1.7622428149 -0.2087816082 0.8800475705
O 2.6630943409 -0.4954898640 -0.2014159004
C 3.7981099989 0.3627400268 -0.1192867848
C 4.7007661037 0.1316209030 -1.3167922205
O 5.8645968695 0.9670516673 -1.1646454888
C 6.5698784298 0.7416915574 0.0499161704
O 5.7465564770 0.8915991047 1.1964120959
C 4.5891958869 0.0411079395 1.1472800792
C 3.7332356776 0.2796288220 2.3706974143
O 4.4549622134 -0.1353626666 3.5281124141
C 2.4354655251 -0.5152787403 2.2196390375
O 1.5984054197 -0.1384636266 3.3109315475
C 7.2893960467 -0.5847490415 0.0552437669
C 7.6095132844 -1.3764652098 1.1257734375
C 8.3952291962 -2.5067381343 0.7698532429
C 8.6769813384 -2.5591730373 -0.5675782809
S 7.9760969855 -1.2189490474 -1.4144472434
H -2.1252207831 -1.6523155890 -0.9172143588
H -0.4166663640 -3.2731541380 1.0346899631
H -1.2665730488 -3.8431156990 -0.4399495243
H -1.4650293283 -0.9273372300 1.9580138472
H -3.1410084666 0.7287183422 1.7816933880
H -5.3947203545 0.0877947339 1.7325712690
H -7.5221624752 0.7876938778 2.2849042592
H -7.3284917714 -0.9936851161 2.3438359880
H -8.9495152833 -0.2744687002 2.1160037285
H -7.4227454959 -0.3507602520 -3.1238990855
H -3.6122635217 0.8985593601 -4.0515209070
H -3.4337478221 -0.8832785540 -3.9548917350
H -4.3892035915 -0.1475836570 -5.2765400063
H -3.1270257506 0.1822080356 -1.9020472853
H -3.0472195428 2.8966416291 0.4942241893
H -0.6309646838 5.4075306219 -2.6959385761
H 0.3524776524 5.7261696736 -1.2004497347
H 1.0444041902 1.0769480762 -1.7329562290
H 0.2531189663 -1.1506769265 -1.2586415332
H 1.4764067308 0.8567981261 0.8362097548
H 3.4816450838 1.4190836813 -0.0953553552
H 4.2233196899 0.4376724674 -2.2503227084
H 4.9786647212 -0.9303289916 -1.3786832266
H 7.2892670114 1.5656998958 0.1074413927
H 4.8955966704 -1.0156591953 1.1159703956
H 3.4857033958 1.3523570231 2.4345422297
H 3.8697175898 -0.0117788199 4.2875365321
H 2.6673238953 -1.5910626699 2.2511645354
H 0.8454942415 -0.7437433288 3.3286165062
H 7.2867925244 -1.1525481646 2.1358151187
H 8.7356396761 -3.2534133211 1.4778029810
H 9.2425025289 -3.3055569974 -1.1098446932
