40
CONF9
C 3.9639425518 0.2281175857 1.2893534037
O 3.9740445497 -1.2011859720 1.5201782048
C 2.8031762439 -1.8452278355 1.4953152572
C 2.8097369961 -3.2172827313 1.7087494147
C 1.5619677442 -3.8369603339 1.6692068948
N 0.4205096917 -3.1784147699 1.4417121610
C 0.5479180717 -1.8643213258 1.2526742343
N 1.6771500294 -1.1541624731 1.2681071414
N -0.6526080163 -1.2021904575 1.0096576458
C -0.9194032809 0.1328508991 0.7498059849
O -2.0444759424 0.5048642950 0.4412216904
N 0.1552591740 0.9915608357 0.8766899805
S 0.0683634903 2.5790941201 0.2857791476
O -0.9253210490 3.3317984423 1.0547279266
O 1.4694572509 3.0094757529 0.2764891763
C -0.5080949400 2.4147975954 -1.3563184652
C 0.1258018639 1.8038751033 -2.4361931521
N -0.6169813982 1.7982169511 -3.5427056099
C -1.7697726447 2.4032696658 -3.1923018221
N -1.7570219810 2.7916614611 -1.8467761513
C -2.8309716604 3.4048286312 -1.2604674503
C -3.9394200058 3.6519474046 -2.0219358978
C -3.9816816376 3.2867325897 -3.3830707547
C -2.9034849562 2.6657931335 -3.9684079420
Cl 1.6869674318 1.0757779806 -2.3964138664
O 1.5300055662 -5.1587622447 1.8718076599
C 0.2403941819 -5.8159591255 1.8370934513
H 3.3795484936 0.7368234920 2.0609969399
H 3.5579994532 0.4533065507 0.2991500216
H 5.0092936053 0.5285487533 1.3470913603
H 3.7222882660 -3.7674885261 1.8936379671
H -1.4691428107 -1.7983233127 0.9629885481
H 1.0897749919 0.5605367296 0.9773552518
H -2.7389252704 3.6619882958 -0.2158620782
H -4.7869320562 4.1364340978 -1.5528884571
H -4.8701554919 3.4961978958 -3.9678394136
H -2.8972705721 2.3658875126 -5.0094927981
H -0.2266734842 -5.6914367945 0.8572863165
H 0.4585157363 -6.8666450063 2.0248836424
H -0.4137771694 -5.4160243793 2.6154195457
