47
CONF8
C 0.4533353009 1.0876514831 -2.7547269593
C 0.0850959591 -0.2615245995 -2.2069332595
C 0.1928187324 -1.4040002759 -3.0029146338
C -0.1676406559 -2.6540548884 -2.5100531817
C -0.6393410475 -2.7826521903 -1.2093265309
C -0.7506135416 -1.6675559783 -0.3755137335
C -0.3788719788 -0.4163078539 -0.8908685263
N -0.4943984488 0.7416120986 -0.0463376985
C -1.8190784706 1.3364690044 0.2252034725
C -2.8709009859 0.9188960613 -0.8033897610
C -1.7692855889 2.8614086188 0.2526372419
O -2.4409212336 3.5285676775 1.0138727470
O -1.0164173924 3.3687314854 -0.7307933110
C -0.9661035080 4.8153527155 -0.7995377868
C 0.5330511755 1.1806030993 0.7373998281
O 0.3539010603 2.0787788004 1.5675490844
C 1.8964433261 0.5277927245 0.5698785936
C 2.0366547975 -0.6924868655 1.4554888170
C 2.2754397892 -1.9485790502 0.8952672287
C 2.3811473809 -3.0773211667 1.7044385271
C 2.2473697831 -2.9621570391 3.0861701077
C 2.0164274160 -1.7100898112 3.6539778294
C 1.9128884878 -0.5826992792 2.8440225661
C -1.2646495793 -1.8163195761 1.0274460220
H -0.4086002270 1.7618938317 -2.7564946229
H 0.8255160372 0.9931824754 -3.7769603138
H 1.2245885182 1.5767285204 -2.1504534930
H 0.5571291502 -1.3054537469 -4.0213305274
H -0.0793334849 -3.5312948406 -3.1437673471
H -0.9170696117 -3.7594591454 -0.8239101684
H -2.1492139941 1.0426493773 1.2293167999
H -3.8129841580 1.4163070912 -0.5581781356
H -2.5732381941 1.2087847346 -1.8143773389
H -3.0380562143 -0.1596628363 -0.7796940968
H -0.5531898569 5.2188921913 0.1283059490
H -0.3119512467 5.0411286991 -1.6407175646
H -1.9665233773 5.2202662141 -0.9690313572
H 2.0760286264 0.2422432276 -0.4679499628
H 2.6300584648 1.2872011071 0.8561535476
H 2.3666658007 -2.0428383991 -0.1833265366
H 2.5641305182 -4.0479853045 1.2533192829
H 2.3264106924 -3.8416678396 3.7176256096
H 1.9164393997 -1.6108993746 4.7306276024
H 1.7292548239 0.3908787286 3.2894142063
H -1.2295129390 -2.8636765149 1.3352663556
H -2.3060014153 -1.4810034591 1.1064110200
H -0.6768985185 -1.2263303603 1.7367947103
