45
CONF88
C 0.3181687640 -2.3790375415 -0.2732724365
C 1.7006025682 -2.1644349373 -0.8864375441
C 2.8244365531 -2.0024277972 0.1446706241
C 2.6084946158 -0.8775166193 1.1642060538
C 2.3941461418 0.4996957312 0.5373065175
C 2.2021802225 1.5919660698 1.5889595684
C 2.0772953280 3.0070364209 1.0134572253
C 0.9817779628 3.1706292920 -0.0195323193
O -0.2798339915 2.7811092332 0.6045316380
C -1.3459137341 2.6870901333 -0.2098473480
O -1.3006070074 2.9241969670 -1.4031256215
C -2.5888853791 2.2515964243 0.5244532152
C -3.2395463450 1.0411588166 -0.1562685460
C -2.3551650657 -0.2045685960 -0.1085277841
C -2.9873017991 -1.3934959579 -0.8315484102
C -2.1923392928 -2.7020619018 -0.7481286243
C -0.7664435831 -2.6218347391 -1.3259915356
H 0.0457861433 -1.5116014357 0.3388716019
H 0.3506724457 -3.2373846577 0.4133709527
H 1.9404652441 -3.0173662309 -1.5359730587
H 1.6667634956 -1.2853478595 -1.5440572360
H 2.9469668363 -2.9493188802 0.6876303316
H 3.7689735607 -1.8245745108 -0.3869993531
H 1.7479099473 -1.1152960906 1.8037694600
H 3.4794853134 -0.8351413376 1.8317926393
H 3.2496821393 0.7493367449 -0.1073817744
H 1.5134646529 0.4643515056 -0.1158185959
H 1.3111994699 1.3601082583 2.1860265849
H 3.0514621179 1.5782630852 2.2841093415
H 3.0164840326 3.2909667026 0.5210746539
H 1.9174762234 3.7243739350 1.8273408981
H 0.8957790549 4.2094710322 -0.3544686045
H 1.1428510201 2.5368401443 -0.8960537148
H -2.3455688196 2.0289470786 1.5668744826
H -3.2791270904 3.1040703840 0.5128379707
H -3.4680893673 1.2946883188 -1.1983730686
H -4.1948638909 0.8350477516 0.3403941726
H -1.3813019161 0.0277226629 -0.5620951181
H -2.1560306288 -0.4695686303 0.9393484303
H -3.9923564453 -1.5623012145 -0.4208859847
H -3.1262156514 -1.1290806129 -1.8894746004
H -2.1387341414 -3.0283104025 0.3001249531
H -2.7619873494 -3.4741320635 -1.2788948488
H -0.5272634136 -3.5517071829 -1.8575055331
H -0.7249491479 -1.8221574981 -2.0796288721
