45
CONF1013
O -0.7218525596 -0.3727796219 -2.9408731801
C -1.9981013947 -0.9867639223 -2.7559948906
C -2.4986092404 -0.9298079887 -1.3302006646
O -1.5781045059 -1.6753862583 -0.4804545170
C -1.4988942904 -1.0798630110 0.8001251329
C -1.6961385636 -2.1177589176 1.8982986882
O -0.6659935964 -3.0956265108 1.9284672133
O -0.2216040818 -0.4317409370 1.0088526481
C 0.9009796034 -0.9177282821 0.3074564130
O 1.1736311872 -0.1304466090 -0.8455690564
C 1.4446030716 1.2663265080 -0.5605805639
C 1.5607356311 1.9837045166 -1.8936892104
O 0.2991863958 2.2459659863 -2.5027307840
C 2.7156438073 1.3474334290 0.2919318950
O 2.9829645318 2.6929417803 0.7028305949
C 2.5142898912 0.5396193448 1.5700560206
O 3.7148048927 0.4621989256 2.3395907227
C 2.1146880700 -0.8875456711 1.2358425836
O 1.7853863919 -1.6367936093 2.4063038087
C -2.5543599441 0.0461019831 0.8103951339
O -2.2926377407 1.0883337000 1.7229846817
C -2.6018237682 0.4411165676 -0.6641521286
O -3.8092257962 1.1255112375 -0.9605364056
H -0.1300300409 -0.6715967621 -2.2274663080
H -2.7108579568 -0.4585105802 -3.3988226081
H -1.9637187821 -2.0376206215 -3.0772915100
H -3.4885855650 -1.4106886504 -1.2951355923
H -2.6400426057 -2.6403990026 1.7110344428
H -1.7765326693 -1.5831457399 2.8565651545
H 0.1461086116 -2.6649813385 2.2471753463
H 0.7291634088 -1.9301449920 -0.0653220959
H 0.6054527780 1.6980504132 0.0037294689
H 2.2185405227 1.4010084269 -2.5575815921
H 2.0263473305 2.9590602218 -1.7219102303
H -0.1211666737 1.3933976051 -2.7228611605
H 3.5663119862 0.9328170984 -0.2691240885
H 3.5763765832 3.1011723732 0.0618246240
H 1.7128137076 1.0148400813 2.1582288627
H 3.9624943827 1.3674103353 2.5702219724
H 2.9450932864 -1.3675852807 0.6971323121
H 2.5814914398 -1.7151987193 2.9476888874
H -3.5281598149 -0.3791401412 1.0869472742
H -1.3683420743 1.3502436871 1.6002894219
H -1.7237292141 1.0579289944 -0.9050376604
H -3.6885956484 1.6060700580 -1.7886388712
