39
CONF6
C 7.8569180228 3.1573783455 -0.0431347817
C 7.0757848562 2.5292094566 0.8326831560
C 6.7337077118 1.1039940028 0.6454274753
O 7.0964882535 0.3961479488 -0.2690284856
O 5.9364192086 0.6748799975 1.6609057409
C 5.5293539195 -0.7063762022 1.5863089958
C 4.4023335093 -0.9367457312 0.5836723514
C 3.0691503790 -0.3910509679 1.0520169733
C 1.9242424317 -0.6470024272 0.0235503452
C 0.4747230568 -0.3672909947 0.5513939632
C -0.5797220547 -0.1961210104 -0.5992681084
C -2.0616281305 -0.3634887003 -0.1068226542
C -3.1121653467 0.2366538050 -1.1069659655
C -4.5637690312 -0.3040773585 -0.8722147785
C -5.6808527621 0.5640033825 -1.5392961696
F -5.8317285313 1.7286427590 -0.9008554516
F -6.8384805679 -0.1080448064 -1.4809083908
F -5.3824119807 0.8018198638 -2.8245224379
F -4.6555327007 -1.5495131430 -1.3838972107
F -4.8207046174 -0.3474020716 0.4557806319
F -3.1243605138 1.5816261553 -0.9683820170
F -2.7457265117 -0.0733270536 -2.3713013966
F -2.3193714476 -1.6818077529 0.0478063004
F -2.2031230834 0.2598119837 1.0839277277
F -0.4389842378 1.0384566018 -1.1334362690
F -0.3428575006 -1.1235106974 -1.5542650900
F 0.4777723149 0.7591417365 1.2953889111
F 0.0958425814 -1.4090625935 1.3289563885
F 1.9823959554 -1.9473526583 -0.3644375840
F 2.1607465985 0.1354312935 -1.0612271601
F 3.1416274332 0.9512291431 1.2731443489
F 2.7009358322 -0.9824326347 2.2347112616
H 8.1157997757 4.2030244352 0.0808430265
H 6.6615791736 3.0255992526 1.7041801087
H 5.2172578275 -0.9644830281 2.6002350485
H 6.3876843522 -1.3186727715 1.2959326966
H 4.6574061051 -0.4920632598 -0.3820782398
H 4.2894299399 -2.0144001959 0.4343133326
H 8.2507865118 2.6260122292 -0.9042558123
