47
CONF43
C -7.0839245553 -0.4769156763 3.0095054107
O -6.7109933949 -0.8881051469 1.6632130138
P -5.1814296620 -0.8474385583 1.2046448423
S -3.8566024281 -1.5599192916 2.4350334816
O -5.2696981644 -1.5007895740 -0.2501897013
C -5.2954892749 -2.9499518169 -0.4006320332
O -5.0200105304 0.7211523365 0.8226401544
C -3.7689044222 1.3204671726 0.6568857406
C -3.4231431358 2.3420171422 1.5281996780
C -2.1984123612 2.9830910518 1.3671973105
C -1.3427556037 2.6058715462 0.3305522441
C -1.7161416990 1.5858512795 -0.5493796185
C -2.9294797272 0.9316883300 -0.3818657219
S 0.1807258115 3.5172342610 0.1125057441
C 1.3744790457 2.2206083833 -0.1956459336
C 2.3644034435 2.4505553505 -1.1530791854
C 3.3568650300 1.5004064377 -1.3746766215
C 3.3354724827 0.3208938211 -0.6428864500
C 2.3533949649 0.0740000928 0.3088711613
C 1.3748855635 1.0316664248 0.5395215740
O 4.2724887203 -0.6855390311 -0.8790895146
P 5.8677756146 -0.4716720947 -0.6104929322
S 6.3125132164 0.5838455114 0.9536733293
O 6.4787568646 0.1374795079 -1.9499708173
C 6.2248602251 -0.5030537021 -3.2406939152
O 6.3542961730 -1.9909797630 -0.6786536474
C 5.9904655840 -2.9179914912 0.3840833205
H -6.8230441165 0.5732397179 3.1663991596
H -6.5825762305 -1.1102860132 3.7453579404
H -8.1637212074 -0.6096589797 3.0664163482
H -6.1848491534 -3.3617259593 0.0833296361
H -5.3327202217 -3.1299834686 -1.4743601316
H -4.3891757780 -3.3852375813 0.0273895877
H -4.0968176842 2.6176057362 2.3323561363
H -1.9076485949 3.7688252401 2.0566345668
H -1.0611245895 1.2994145902 -1.3654573771
H -3.2283880106 0.1400527058 -1.0604923522
H 2.3595930877 3.3667746790 -1.7345101231
H 4.1233607561 1.6704180761 -2.1234671123
H 2.3690570229 -0.8544899569 0.8697432400
H 0.6148155393 0.8514471248 1.2924343194
H 6.6195290113 0.1850700960 -3.9870802800
H 6.7487583594 -1.4596328501 -3.2871415798
H 5.1507744120 -0.6431721902 -3.3864972624
H 6.4573565689 -3.8657851329 0.1189144226
H 6.3784252520 -2.5579417930 1.3404866898
H 4.9039966957 -3.0294063536 0.4273192706
