82
CONF90
C -3.8791054304 -1.7816397695 -2.7326527046
C -4.7892457557 -0.6663106121 -2.2929763021
C -6.1029534189 -0.7231708955 -2.5412049426
C -4.1244284913 0.5006545917 -1.6014397448
C -5.0528297856 1.6289061870 -1.1306575249
C -4.2183675270 2.3735895304 -0.0915676471
C -3.5233012123 1.2546891345 0.7132010521
C -3.2950628688 0.1058345668 -0.3314924568
C -1.8003914643 -0.1835717522 -0.5889833197
C -1.0889092062 0.9512918994 -1.3727107729
C 0.3042644179 1.2821498974 -0.8437423797
C 1.1103215637 -0.0011382224 -0.6490123053
C 2.6661220000 0.2900286676 -0.5152257329
C 2.9768130506 1.5693099344 0.2955306712
C 4.4818919194 1.8260338642 0.4559406357
C 5.2318515004 0.6634688482 1.1030129275
C 4.9545192814 -0.6833560409 0.3847514241
C 3.4189968222 -0.9101233480 0.1419858793
C 2.7288451679 -1.3964916785 1.4532716393
C 1.2978350237 -0.9147157653 1.6848646800
C 0.4475918804 -0.9432025988 0.4140891357
C -1.0709164392 -0.5546345769 0.7328002808
C -1.2323900064 0.6120179543 1.7666564956
C -2.2086224528 1.7262648074 1.3500947105
C -1.7619599041 -1.7932532204 1.3477314254
C 0.5012809277 -2.3768990965 -0.1639354074
C 5.7655799660 -0.6821870674 -0.9313682446
C 5.5453989939 -1.8488478923 1.2008071263
O 4.9710112512 0.6307563500 2.5251062527
C 3.1121950019 0.5106850342 -1.9814769916
C -4.4932348363 0.7312009946 1.7933968113
O -4.9337635295 1.7279669516 2.7264731751
H -4.4121175598 -2.5068818283 -3.3526494041
H -3.4636235585 -2.3118815438 -1.8673328456
H -3.0268483507 -1.3888913404 -3.3002697963
H -6.7862638615 0.0655244738 -2.2452205929
H -6.5308519716 -1.5756805624 -3.0621955959
H -3.4254313680 0.9326310421 -2.3327231279
H -5.3874282857 2.2670487360 -1.9550379163
H -5.9483036264 1.2122831812 -0.6560996414
H -3.4634945204 2.9912862007 -0.5932088948
H -4.8115989850 3.0330717542 0.5497666597
H -3.7435500332 -0.8135886079 0.0662550968
H -1.7550127431 -1.0815059905 -1.2127736036
H -0.9866176108 0.6433664732 -2.4216852293
H -1.6970687461 1.8608746885 -1.3888176212
H 0.2440559022 1.8440754425 0.0925904825
H 0.7998154475 1.9451688586 -1.5609474658
H 1.0218236145 -0.5418303672 -1.6030776078
H 2.5022176502 1.5187748056 1.2834037936
H 2.5360625479 2.4414424311 -0.1987329580
H 4.9314338566 2.0433192153 -0.5175230222
H 4.6408842711 2.7217836431 1.0684210621
H 6.3127637785 0.8494179936 1.0364510553
H 3.3631717133 -1.7352270277 -0.5815005459
H 2.7496522611 -2.4917848793 1.4587221867
H 3.3129982334 -1.0930398368 2.3223397686
H 1.3276425905 0.0996887222 2.0884613938
H 0.8426540840 -1.5363721610 2.4662991679
H -1.5541483141 0.1863807286 2.7250517507
H -0.2763124441 1.0972184639 1.9746643545
H -2.4216815827 2.3528870525 2.2266117122
H -1.7071681829 2.3947888551 0.6455365886
H -1.1559013409 -2.2089541361 2.1585571420
H -1.9355482861 -2.5812109747 0.6093130422
H -2.7279735681 -1.5305769541 1.7803485648
H 1.4933593733 -2.5828026473 -0.5711621945
H -0.2116130650 -2.5027230054 -0.9857356136
H 0.2910420586 -3.1382820681 0.5923341922
H 6.8321042300 -0.7767935626 -0.6998997776
H 5.6427763185 0.2209430400 -1.5257008617
H 5.4800966589 -1.5368478122 -1.5536228808
H 5.1138801496 -1.9490135195 2.1959027013
H 6.6241205761 -1.6996195105 1.3228939345
H 5.3960167340 -2.7920200274 0.6616046492
H 4.0430511987 0.8539727481 2.6660340156
H 3.2447016704 -0.4485022781 -2.4930337541
H 4.0363920412 1.0776515089 -2.0805547735
H 2.3453208511 1.0720417325 -2.5237597679
H -5.4039056899 0.3536388745 1.3157051834
H -4.0335984651 -0.1068070345 2.3336020920
H -4.2010139008 1.9262506295 3.3211278668
