33
CONF27
O -3.8601503963 1.8138947899 -3.4640777522
C -3.3957014166 1.2167434206 -2.3413520493
C -4.3568718566 0.7408642701 -1.4472036469
C -3.9338718166 0.1217730757 -0.2815280974
O -4.8509700353 -0.3620492999 0.5706408353
C -2.5461855829 -0.0235851259 0.0119386366
C -2.1046514670 -0.7747944099 1.1536540176
O -2.8944953585 -1.2784284881 1.9788177719
C -0.6169629571 -0.9724702172 1.2825717718
C 0.1385622111 0.2016904974 0.6756431500
O -0.2750825452 0.3907180933 -0.7151821473
C -1.6106790193 0.4906427601 -0.9203796152
C -2.0229548523 1.1019760870 -2.0927361051
C 1.6283271931 0.0303546192 0.6853294035
C 2.4233094836 0.8622815669 1.4696085208
C 3.8052163840 0.6777132443 1.5146880956
C 4.3945514712 -0.3307207030 0.7650155418
O 5.7376424107 -0.5885070298 0.7356695358
C 3.5982332926 -1.1665436341 -0.0373558028
O 4.1589334863 -2.1584659827 -0.7878617008
C 2.2241250661 -0.9861364187 -0.0682305873
H -3.1189801452 2.1094222242 -4.0115745173
H -5.4131446734 0.8459969003 -1.6650021535
H -4.3378631721 -0.8019114272 1.3055258267
H -0.3508463444 -1.0879507524 2.3368694123
H -0.3502948085 -1.9044427523 0.7647416414
H -0.1287607167 1.1208572821 1.2152887358
H -1.2891428698 1.4982739617 -2.7866458612
H 1.9695450503 1.6575965570 2.0526295115
H 4.4289623252 1.3227262831 2.1276282393
H 6.2055648435 0.0246607058 1.3175600821
H 5.1173115662 -2.1498272625 -0.6502805758
H 1.6273261497 -1.6423535336 -0.6944103188
