63
CONF241
C -10.9126056987 2.4749607119 -1.3186448622
C -10.4238694278 1.2780337784 -0.5058766353
C -8.9432803482 1.3765124893 -0.1403532950
C -8.4398938585 0.1826318061 0.6689223350
C -6.9602844607 0.2844156849 1.0370389253
C -6.4577563429 -0.9291943662 1.8197708894
C -5.0147354557 -0.8047752148 2.3161386830
C -3.9766003658 -0.6626266608 1.2024943556
C -2.5397842078 -0.7018346840 1.7208252105
C -1.4964280875 -0.5175327695 0.6204527244
C -0.0592804807 -0.5893820822 1.1337159502
C 0.9842928593 -0.3890556735 0.0363301020
C 2.4212178338 -0.4793848059 0.5472392024
C 3.4656591178 -0.2700204752 -0.5476249157
C 4.9019383316 -0.3767288693 -0.0379791951
C 5.9477338651 -0.1607002598 -1.1302494323
C 7.3828348707 -0.2790381808 -0.6203479838
C 8.4293385585 -0.0582401595 -1.7113222970
C 9.8613799479 -0.1849729850 -1.1943851659
C 10.8900675743 0.0397834623 -2.2859216586
O 12.1918709412 -0.1016323999 -1.7059620286
H -10.7783699726 3.4081312770 -0.7609229178
H -10.3529488285 2.5663896201 -2.2557939479
H -11.9738193922 2.3850298635 -1.5699692690
H -10.5946985239 0.3527328435 -1.0717435940
H -11.0175086532 1.1882944365 0.4133784663
H -8.7711087676 2.3010335340 0.4287204283
H -8.3485910880 1.4693569378 -1.0600098877
H -8.6082447990 -0.7407650976 0.0969330236
H -9.0377187592 0.0866363071 1.5861222624
H -6.7938467950 1.1944264971 1.6314801554
H -6.3725567852 0.4058694820 0.1181697757
H -7.1179752728 -1.0909153734 2.6824194021
H -6.5494841373 -1.8265828123 1.1917154124
H -4.9371908498 0.0566369543 2.9944913881
H -4.7685742192 -1.6902995167 2.9174332247
H -4.1343638854 0.2789150660 0.6609443892
H -4.1201609692 -1.4674251987 0.4669127026
H -2.4069324170 0.0794082915 2.4826245683
H -2.3645072361 -1.6586708416 2.2324774595
H -1.6439457526 -1.2843597762 -0.1531192609
H -1.6575228031 0.4501021239 0.1248253235
H 0.0857699651 0.1685524215 1.9164241494
H 0.1044459929 -1.5622676657 1.6181257660
H 0.8319350290 -1.1395143639 -0.7521771613
H 0.8283033513 0.5890968368 -0.4399643717
H 2.5723307530 0.2653297431 1.3413535972
H 2.5780573109 -1.4608440840 1.0163896792
H 3.3083859949 -1.0081596676 -1.3467007622
H 3.3160198084 0.7159409724 -1.0096319852
H 5.0580795735 0.3570046763 0.7652907174
H 5.0521961186 -1.3649855874 0.4188089364
H 5.8024824076 0.8306802137 -1.5820121933
H 5.7873194459 -0.8898605874 -1.9369466854
H 7.5289856061 -1.2717956525 -0.1726777384
H 7.5428699730 0.4471656682 0.1886400676
H 8.2650744426 -0.7822987463 -2.5217617832
H 10.0192047257 -1.1809808800 -0.7622740981
H 10.0374693361 0.5402951052 -0.3901880536
H 10.7618465171 1.0462565325 -2.7170773401
H 10.7412378276 -0.6943632713 -3.0948080375
H 12.8464133496 0.0402395590 -2.3970608158
H 8.2844954260 0.9368588795 -2.1548865309
