39
CONF32
C 7.1913149893 3.2227858743 2.0123881203
C 6.5873053569 2.4890983755 0.8173375827
C 6.1428305530 1.0684287070 1.1633143135
C 5.5535464087 0.3318841102 -0.0383270748
C 5.0684193429 -1.0950253496 0.2530004207
C 4.8495814029 -1.8788211618 -1.0506242156
C 4.3653398728 -3.3153740602 -0.8634215522
C 3.8463336571 -1.1163075015 1.1605826121
O 2.6714975559 -0.5659849946 0.4807917596
C 2.2461035267 0.6421156179 0.8735099823
O 2.7538920941 1.3338849241 1.7261442624
C 0.9493558262 1.0196981120 0.2146932743
C -0.0834959886 1.3347867607 1.0915113971
C -1.3399507329 1.6711888864 0.6155893486
C -1.5868048079 1.7212460720 -0.7602670633
C -0.5364600765 1.4461646028 -1.6530029277
C 0.7286230022 1.0940788469 -1.1613453568
Br 2.1792405621 0.8214048011 -2.3533836646
Br -0.8334002323 1.5552872493 -3.5187364413
Br -3.3065465393 2.1723853948 -1.3985358041
Br -2.6855873022 2.0555020006 1.8972276480
H 8.0693084562 2.6915271050 2.3957609118
H 7.5038442311 4.2366906054 1.7449088370
H 6.4660222932 3.3002269291 2.8293487532
H 5.7223143234 3.0492810018 0.4393147831
H 7.3165015688 2.4535842749 -0.0031970300
H 7.0007206843 0.5016531113 1.5527211193
H 5.4030261629 1.1233619360 1.9709312587
H 6.3122995016 0.2794726413 -0.8306644387
H 4.7229575780 0.9156302488 -0.4573952251
H 5.8509780654 -1.6129565098 0.8321298836
H 5.8014125159 -1.8841810338 -1.5954096111
H 4.1365384988 -1.3306031489 -1.6769841936
H 3.3383074808 -3.3534733040 -0.4878737230
H 4.3804530870 -3.8543572824 -1.8150733668
H 5.0046865789 -3.8631561640 -0.1612533923
H 4.0145945866 -0.5514778780 2.0794242810
H 3.5586908237 -2.1398632374 1.4119579314
H 0.1068532399 1.3120075198 2.1574255702
