35
CONF7
C -5.8193387284 0.5379125159 0.2326631397
C -4.4268431828 -0.0662072241 0.1000831633
C -4.0198177878 -0.6996566651 1.4280055983
O -3.3214354849 -0.1754476088 2.2642060912
O -4.5813916337 -1.9154864018 1.5619274592
O -3.5428089194 0.9985093406 -0.2334669709
C -2.2623158723 0.6912041012 -0.6134892096
C -1.4580707321 1.7902586286 -0.9312921303
C -0.1476313684 1.5985852385 -1.3419158158
C 0.3526618869 0.3061292075 -1.4306822857
C -0.4309787767 -0.7909265542 -1.1215131634
C -1.7493039920 -0.6039208821 -0.7071903118
O 1.6495345286 0.1060649933 -1.9276062499
C 2.6822434615 0.0750578093 -1.0448174470
N 2.4427973407 0.2185881658 0.2496057598
C 3.4911752723 0.1771078274 1.0830935424
C 4.7933268128 -0.0092261174 0.6439601078
C 5.0268872952 -0.1547551035 -0.7300365184
C 3.9577084834 -0.1143485814 -1.5965290862
C 5.9434681380 -0.0321709456 1.5942506139
F 6.7651142427 -1.0913871927 1.3684366945
F 6.7240203542 1.0789074675 1.4790889771
F 5.5512008096 -0.1003426699 2.8857933451
H -6.1045567752 0.9958617227 -0.7171225175
H -6.5428414202 -0.2412085310 0.4819846768
H -5.8260256720 1.2999957553 1.0166684393
H -4.4237652982 -0.8339257919 -0.6844159499
H -4.3535698526 -2.2654450599 2.4408154342
H -1.8757097202 2.7885314436 -0.8550801356
H 0.4852479333 2.4435038600 -1.5923045948
H -0.0172426834 -1.7908516075 -1.1990105407
H -2.3461501607 -1.4761861264 -0.4692590320
H 3.2707405461 0.2957206347 2.1406339230
H 6.0338423157 -0.2996890599 -1.1081026581
H 4.0798286506 -0.2246617986 -2.6673824382
