28
CONF108
O -2.0724572962 0.8135814191 2.2040239809
C -2.8539435563 0.9194147337 1.0136986532
C -2.2272034354 0.2130701391 -0.1696338787
O -0.9904735049 0.8893921568 -0.4823729011
C -0.0670380546 -0.0271767057 -1.0578692747
C -0.6141449721 -1.4465350726 -0.8341074572
C -1.8521180124 -1.2615983271 0.0541932517
O -2.9286984385 -2.1497576533 -0.2249187267
N 1.2716630128 0.2366442569 -0.4930282135
C 2.2818954723 0.6649059126 -1.3184408857
C 3.5360694011 0.9166604196 -0.8838273798
C 3.8623217254 0.7472213284 0.5067707047
O 4.9580458016 0.9400723129 1.0301913428
N 2.7749090196 0.3237800359 1.2856172556
C 1.4890829751 0.0610132728 0.8705313256
O 0.6116389198 -0.3000647955 1.6483795687
H -1.1388853675 0.7604223112 1.9420582573
H -3.8311941823 0.4639045278 1.2124480768
H -3.0180369060 1.9748873562 0.7493743967
H -2.9133563997 0.2823413751 -1.0308081406
H 0.0402453981 0.1844529536 -2.1271163608
H 0.1303373448 -2.1118045099 -0.3944376002
H -0.9177090740 -1.8620523329 -1.8003005747
H -1.6011074455 -1.4279938437 1.1027159969
H -3.1801134004 -2.0406816797 -1.1525883962
H 2.0051507977 0.7861560779 -2.3602474372
H 4.3036928775 1.2508049383 -1.5680587275
H 2.9414278928 0.1989399852 2.2777531438
