41
CONF318
C -3.1034710912 3.3350608421 1.9735814325
C -2.1401059195 3.6912425880 0.8431925049
C -2.8562494220 4.4845451493 -0.2456320041
N -1.5757783948 2.4726540326 0.2387084608
C -0.6303357148 1.7688019757 1.1074660881
C 0.0968187409 0.6712263230 0.3476819070
O 0.8711111674 1.2913587210 -0.6858929755
C -0.8682267513 -0.3426272573 -0.2554081023
O -0.1389366277 -1.3675401025 -0.9552851207
C 0.5366572907 -2.3200725450 -0.2409499330
C 0.3022547180 -2.6126378316 1.1032469219
C 1.0237690926 -3.6311993044 1.7237461962
C 1.9749514375 -4.3557125631 1.0161078717
C 2.2029610283 -4.0510012045 -0.3249897079
C 1.5008107136 -3.0385622392 -0.9715231956
C 1.7807252299 -2.6733565147 -2.4022010396
C 2.6125900531 -1.4286411154 -2.5783013577
C 3.2285029646 -0.7522945474 -1.6096290470
H -3.9034167709 2.6898724568 1.5932385517
H -2.6007861772 2.8154258856 2.7944212180
H -3.5543024454 4.2436803147 2.3846172814
H -1.3339072492 4.3247149854 1.2647182497
H -3.6799511147 3.8946505261 -0.6623648236
H -2.1715265975 4.7444815274 -1.0605607349
H -3.2657249029 5.4135978437 0.1617467264
H -1.0626296933 2.7473306749 -0.5950838660
H 0.1292229337 2.4437885370 1.5462736686
H -1.1679031961 1.3022619195 1.9422378557
H 0.7655746894 0.1534521932 1.0541320710
H 1.3072975925 0.5851799430 -1.1889226269
H -1.4802207262 0.1348739091 -1.0220172336
H -1.5335059268 -0.7693162610 0.5045939536
H -0.4338289697 -2.0608477781 1.6749900448
H 0.8341114898 -3.8516110777 2.7697236220
H 2.5362665212 -5.1480655402 1.4997911872
H 2.9506972661 -4.6053409176 -0.8863978258
H 2.3019145620 -3.5048520798 -2.8952663652
H 0.8415567273 -2.5390925715 -2.9526556887
H 2.7137858018 -1.0887256602 -3.6090656820
H 3.1623587074 -1.0616235688 -0.5688531570
H 3.8268694556 0.1255607501 -1.8332153470
