63
CONF478
C 7.9580943423 1.5051183697 -2.6917181240
C 6.8075036160 0.6389543795 -3.1947003500
N 5.7575493808 0.4811691558 -2.1816793750
C 4.6969704625 1.4867798699 -2.1049734098
C 4.2567747680 1.6723938322 -0.6740189931
N 3.8078903420 0.3787278301 -0.1192021451
C 4.5363383022 -0.7456515277 -0.4211501436
O 4.2943651720 -1.8728517578 -0.0049579242
C 5.7661208366 -0.5744778184 -1.3521051823
O 6.6387829246 -1.4414085758 -1.3190171696
C 2.7165800237 0.4321157004 0.8085456991
O 2.2341487501 1.5146857316 1.1240027385
N 2.2584593457 -0.7508368269 1.2712227333
C 1.2060224453 -0.7584570891 2.2749196318
C 0.9886054709 -2.1565731586 2.8171628143
C 0.8308068991 -3.2465533257 1.9560384798
C 0.5934410920 -4.5167579768 2.4727108251
C 0.4984358505 -4.7069321243 3.8500062237
C 0.6465812293 -3.6216837127 4.7098574753
C 0.8928203542 -2.3511328337 4.1955262480
C -0.1416863086 -0.2296500281 1.7463250441
O -0.9661188443 0.2490773996 2.5216327302
N -0.3766255584 -0.3862315748 0.4240663057
C -1.6075240911 0.0245454595 -0.1749326194
C -2.0507696387 1.5218630203 -0.1501553460
N -3.3180662642 1.0901700266 0.4666267707
C -2.9500957519 -0.2459942382 0.5435844231
O -3.5218252078 -1.2189425769 0.9777904044
C -4.5561779602 1.6929778747 0.0085693039
C -4.1199691642 2.9292996255 -0.8608753781
S -2.5368385502 2.3672675971 -1.6981438015
C -3.8356989581 4.1095415365 0.0696270256
C -5.1357735932 3.3215854085 -1.9261328190
C -5.3774648633 0.6979165083 -0.8061577200
O -6.6913394057 0.9116958404 -0.6311467769
O -4.9151155301 -0.1519267749 -1.5334132432
H 8.4349426104 1.0437933980 -1.8223302485
H 7.6073583621 2.5029417792 -2.4108554290
H 8.7068388283 1.6154330049 -3.4815551810
H 6.3393940672 1.0873516599 -4.0773819919
H 7.1649674316 -0.3579331719 -3.4641522091
H 3.8512472031 1.2009573272 -2.7454822827
H 5.0967048414 2.4364869046 -2.4707206330
H 5.0750402047 2.0709351757 -0.0622352002
H 3.4171965229 2.3647473326 -0.6299497632
H 2.7686169025 -1.5965183085 1.0322715082
H 1.4686393990 -0.0883610863 3.1005323641
H 0.8903143872 -3.1113211711 0.8795081633
H 0.4777411640 -5.3582529623 1.7969514293
H 0.3108530391 -5.6981091508 4.2506629741
H 0.5770189703 -3.7631077599 5.7838159233
H 1.0158248944 -1.5065257647 4.8670003894
H -1.6695555267 -0.3778981691 -1.1899246087
H -1.4415630853 2.1614640464 0.4943441010
H -5.1694897923 2.0635530793 0.8370941814
H -4.7699200012 4.4266385107 0.5466392676
H -3.4349258978 4.9476206661 -0.5055786886
H -3.1209226793 3.8490665604 0.8548824242
H -6.0818217091 3.5938648007 -1.4475319610
H -5.3199211359 2.5156401527 -2.6421262776
H -4.7708481306 4.1946988416 -2.4738079154
H 0.3503620872 -0.7604425531 -0.1687351700
H -7.1846157226 0.3024841567 -1.2085148997
