22
CONF35
C 2.2356524294 -0.1201110613 -0.0689432543
C 1.0398101483 -0.8856584551 -0.6108174793
C -0.2447882540 -0.6709212081 0.2008017720
C -0.7598209448 0.7644319760 0.1647166964
C -1.9789908399 0.9536899456 1.0610725200
O -2.5315585496 2.2665584777 0.8879946315
O -1.0927027123 1.0624170690 -1.1976044674
O -1.2475971555 -1.5822308000 -0.2757508820
O 1.4030159751 -2.2737904691 -0.5552879762
O 3.4215672203 -0.4070333952 -0.8156894301
H 2.3747362519 -0.3672818337 0.9955018780
H 2.0698802879 0.9565362709 -0.1589672710
H 0.8601813733 -0.5904595775 -1.6568107175
H -0.0492070073 -0.9527459974 1.2432919752
H 0.0353088860 1.4422480406 0.5164806711
H -2.7682149086 0.2535303663 0.7735424877
H -1.7017234771 0.7695815408 2.1079633114
H -1.9143138380 2.9021098018 1.2741842443
H -1.6905901190 1.8242193760 -1.1701634867
H -1.5899613507 -1.2028021405 -1.0996485292
H 0.6095626564 -2.7737898104 -0.7939271437
H 3.5197547273 -1.3684978998 -0.8219395449
