47
CONF235
C -7.1033039062 0.4707153591 -1.2389192237
O -7.1699681398 0.2981378175 0.2117838240
P -5.8663939778 -0.1063442859 1.0364740969
S -6.2407162079 -0.3408149125 2.9252149058
O -5.1789871256 -1.3409119910 0.2760726369
C -5.7250116156 -2.6817171209 0.4346443360
O -4.8445503326 1.0790079966 0.6179305312
C -3.5735918605 1.1823646020 1.1999484678
C -2.5150290964 0.4538022401 0.6731535135
C -1.2477276784 0.6051074340 1.2242290091
C -1.0468467982 1.4971489862 2.2803667801
C -2.1221063774 2.2313849957 2.7897569778
C -3.3944907032 2.0672321019 2.2538861245
S 0.5406803190 1.7030970573 3.0790831677
C 1.6972057573 1.3182130258 1.7705259625
C 2.6556876405 0.3279756204 1.9867215573
C 3.6122046616 0.0540768956 1.0125518356
C 3.5744735426 0.7623009305 -0.1806902447
C 2.6226815240 1.7487779533 -0.4150591212
C 1.6911797087 2.0381272624 0.5721450949
O 4.5244074839 0.5484646034 -1.1802694175
P 4.7376750687 -0.8903922318 -1.8968616157
S 3.1430813887 -1.8966905797 -2.3461326572
O 5.7629227714 -1.5612805833 -0.8598516071
C 6.2125814604 -2.9294185023 -1.0821583719
O 5.5803053650 -0.4825272645 -3.1877315176
C 6.8343158734 0.2576980401 -3.0511885424
H -6.6895903451 -0.4257218120 -1.7068153304
H -6.4968605580 1.3462321419 -1.4805981433
H -8.1332130011 0.6225348649 -1.5596345387
H -5.6686504892 -2.9852713767 1.4829090666
H -6.7601174589 -2.7110367224 0.0832330984
H -5.0999327304 -3.3265274025 -0.1822267556
H -2.6811716624 -0.2269895423 -0.1540844937
H -0.4201308057 0.0297526720 0.8239495371
H -1.9683783468 2.9358985706 3.6010316473
H -4.2374083448 2.6322617539 2.6362414452
H 2.6594053170 -0.2330385486 2.9151523873
H 4.3661184370 -0.7071040071 1.1785228963
H 2.6268573241 2.2873672948 -1.3565035546
H 0.9535905105 2.8163117306 0.4054498098
H 6.7204697475 -3.0080669570 -2.0474351582
H 6.9091944554 -3.1430318312 -0.2722480569
H 5.3599121515 -3.6118498120 -1.0420194326
H 7.2559874042 0.2996300898 -4.0546342764
H 6.6303685720 1.2651644054 -2.6819911532
H 7.5128699715 -0.2700507712 -2.3768794953
