54
CONF263
C -2.7236451526 -3.5714697232 2.6356842227
C -2.4233690197 -3.2835553816 1.1645288946
C -1.3343823499 -4.2220454807 0.6392974728
C -1.9849140079 -1.8263760172 0.9705396546
C -1.6893716187 -1.5284501663 -0.5081013233
O -2.5273924101 -1.7582582431 -1.3838082821
N -0.4812271279 -0.9761033937 -0.7521124527
C -0.1107377058 -0.4521211680 -2.0632382308
C -0.4440662807 1.0403262461 -2.1441911395
C 0.3136132235 1.8842674000 -1.1488863050
O 1.0924862742 1.4660666966 -0.3156794550
O -0.0045603874 3.1824546203 -1.2866001593
C 0.6175724561 4.0844514136 -0.3355992964
C 1.3213840501 -0.8273844110 -2.4062865102
C 1.7946988258 -2.0974123541 -2.0631315726
C 3.0791127831 -2.5064737352 -2.4029252548
C 3.8987153905 -1.6266111240 -3.0989137973
C 3.4595434991 -0.3609739547 -3.4602516394
C 2.1689906062 0.0285782930 -3.1111520551
Cl 5.5311425521 -2.1285048383 -3.5307396513
N -3.0195664264 -0.8935894978 1.4099534506
C -2.6932689700 0.3949069385 1.7141990824
O -1.5530845567 0.7979185708 1.9033378758
O -3.8086850360 1.1561904994 1.8195280019
C -3.6003891557 2.5830057494 2.0937543454
C -3.2527186240 3.2953314361 0.7988464151
C -4.8927173096 3.0729794476 2.7138199322
H -1.8266552690 -3.4139639294 3.2462764145
H -3.5176275653 -2.9276024871 3.0232626408
H -3.0379702666 -4.6125075350 2.7584653637
H -3.3351884274 -3.4368942164 0.5713747946
H -0.3955310186 -4.0616129727 1.1828025934
H -1.6326099551 -5.2648049650 0.7817789937
H -1.0950669975 -1.6392509377 1.5815613969
H 0.0961821047 -0.6991641084 0.0298768289
H -0.7685084448 -0.9580281272 -2.7807891739
H -0.2851153202 1.4360337603 -3.1523279128
H -1.5138246964 1.1694232088 -1.9396826665
H 0.3408044340 3.8020089140 0.6830205880
H 0.2298289422 5.0723192753 -0.5803190109
H 1.7039396532 4.0571941951 -0.4469126079
H 1.1520395197 -2.7826581080 -1.5193082090
H 3.4345222648 -3.4937978118 -2.1303594624
H 4.1102622339 0.3158656125 -4.0021096491
H 1.8428561130 1.0216142629 -3.3995545955
H -2.7752327812 2.6641414556 2.8076526036
H -2.3426242515 2.8829402160 0.3548493034
H -3.0855919738 4.3585074154 0.9983372774
H -4.0745381193 3.2020988498 0.0813310246
H -4.7984772965 4.1353924412 2.9559570661
H -5.1175242273 2.5256602596 3.6332374439
H -5.7257726396 2.9503462127 2.0144147776
H -1.1433614520 -4.0703259937 -0.4278321201
H -3.9600139743 -1.0606576696 1.0778084962
