24
CONF6
C -2.1065612180 -2.6021933260 1.1200681087
O -1.3789316698 -1.8076571010 0.1368186182
P -1.4092812913 -0.2147238100 0.2128192288
S -1.1117780298 0.6179961666 1.9387551382
O -2.7578625853 0.1246511606 -0.5651830919
C -3.2451416953 1.4971904581 -0.6367448434
O -0.3035527968 0.1413617432 -0.9397940075
C 1.0311288736 0.2883502942 -0.6233367395
C 1.8057947061 -0.8266977485 -0.3367326836
C 3.1596162035 -0.6771646410 -0.0631475433
C 3.7394886675 0.5940160083 -0.0824991248
C 2.9648450724 1.7105228350 -0.3767598909
C 1.6115251052 1.5572280245 -0.6439822762
Cl 0.6407260455 2.9538980903 -1.0105919068
Cl 5.4326752664 0.8169796922 0.2530118107
Cl 4.1044752683 -2.0930671608 0.2970696940
H -3.1780276876 -2.4007144317 1.0443680763
H -1.7418447213 -2.3746900760 2.1244892400
H -1.8974844521 -3.6402040577 0.8647625224
H -3.4076001570 1.8872905445 0.3707582267
H -2.5283970793 2.1190164351 -1.1788926291
H -4.1871358431 1.4421234291 -1.1808787763
H 1.3474261158 -1.8088726360 -0.3313209757
H 3.4158982092 2.6953602182 -0.3930562700
