32
CONF29
C 4.1445292442 1.2475093154 -2.8418841754
C 3.0200531413 0.9255917593 -1.8975467068
C 2.3470462309 -0.2965577750 -1.9824151571
C 1.2916051042 -0.5949945099 -1.1319392085
C 0.8943880515 0.3357360136 -0.1779093284
C 1.5438689136 1.5624627473 -0.0810158348
C 2.6030694408 1.8465805372 -0.9333718049
N -0.2148539455 0.0005440205 0.6855937549
S 0.0504663414 0.1171851374 2.3805890971
C 0.0183857796 -1.6555458350 2.8439438386
F -1.2022569140 -2.2200116059 2.7093717593
Cl 0.4575502494 -1.6465228152 4.5896325131
Cl 1.1693110803 -2.6631915576 1.9000003711
S -1.7456497067 0.6897050449 0.1499872333
O -1.7238061125 0.5045799117 -1.3017324059
O -1.9308484274 2.0166092921 0.7414055819
N -2.7897865216 -0.3680938378 0.9191626443
C -2.9744489732 -1.6442376279 0.2208203575
C -4.0105756710 0.2137554358 1.4883339484
H 3.7520620126 1.5808039067 -3.8097154049
H 4.7694281008 0.3694110151 -3.0277687927
H 4.7794554024 2.0452022228 -2.4489007080
H 2.6561244592 -1.0264461518 -2.7253390472
H 0.7676365960 -1.5415779045 -1.1996271787
H 1.2198530326 2.2890387224 0.6577625209
H 3.1108404198 2.8032105548 -0.8520988910
H -2.0049793224 -2.0447462342 -0.0848152553
H -3.4261798343 -2.3474339720 0.9264771150
H -3.6173964606 -1.5453137600 -0.6641961057
H -4.7721625870 0.4257830508 0.7239450242
H -4.4142484147 -0.5116995609 2.2013228801
H -3.7684804082 1.1326648570 2.0219271856
