42
CONF160
C 3.8679171295 2.2348805771 -1.8017975740
C 3.2498392545 0.8657566716 -1.5072136987
C 3.9184550055 0.2045181460 -0.3021660446
C 1.7538471930 1.0484723734 -1.2929122683
O 1.1035588384 -0.2514582436 -1.1503432757
C 0.6987199853 -0.6304176920 0.0699986206
O 0.7553573187 0.0545681499 1.0746397812
C 0.1954925675 -2.0326034127 0.0682480858
C 0.8542316260 -3.0123824102 -0.6761523034
C 0.4869270914 -4.3491809432 -0.5548717293
C -0.5383271671 -4.7153667460 0.3125384602
C -1.2045446657 -3.7436467662 1.0540484611
C -0.8497262198 -2.4025398200 0.9293506397
C -1.6376139996 -1.3893642229 1.6903399477
O -1.8762732690 -1.4664773908 2.8802030523
O -2.0940325376 -0.4253707760 0.8814459376
C -2.7976941869 0.6797207259 1.5226044895
C -3.1854595852 1.6786568148 0.4473045061
C -1.9586529664 2.2337718544 -0.2775788613
C -3.9975188188 2.8013753761 1.0983633540
H 3.7417719116 2.9066803106 -0.9447689252
H 3.4054081700 2.7044674814 -2.6761362060
H 4.9398170651 2.1335676763 -1.9955220606
H 3.3846708397 0.2219136573 -2.3869269346
H 3.8023035141 0.8283616973 0.5915685059
H 3.4900019709 -0.7806158755 -0.0902145713
H 4.9885467908 0.0695426549 -0.4879260055
H 1.2826771064 1.5039588766 -2.1679157132
H 1.5485031505 1.6543609116 -0.4057504588
H 1.6735308747 -2.7268001183 -1.3266336558
H 1.0097850414 -5.1053842203 -1.1310598856
H -0.8244657604 -5.7574080519 0.4102777661
H -2.0180965190 -4.0182580561 1.7176709731
H -2.1240654145 1.1313440646 2.2614181922
H -3.6766119008 0.2800338085 2.0389122173
H -3.8250024702 1.1586632533 -0.2787436553
H -2.2609346407 2.9615359650 -1.0370941608
H -1.3913007706 1.4404906683 -0.7723622186
H -1.2920537096 2.7386667623 0.4320805377
H -4.8891421501 2.4127416183 1.6011111760
H -4.3187049439 3.5239782048 0.3425902328
H -3.3911403526 3.3352472548 1.8393751797
