43
CONF17
C 3.0385666608 -3.3831367909 -1.2909548728
C 3.3786386739 -2.4612490690 -0.1389104415
O 2.5189522532 -1.2934687007 -0.1099044491
N 1.2615009387 -1.6688665667 0.3389108620
C 0.4053122152 -0.7232065460 0.2820734165
C -0.9794544976 -0.9241784945 0.7347054808
C -1.2549196641 -1.2558725011 2.0795797727
C -2.5752191613 -1.3190930883 2.5265587517
C -3.6170051623 -1.0436738122 1.6483537888
C -3.3560640259 -0.7278917329 0.3257460036
C -2.0405076677 -0.6728121454 -0.1517483746
O -1.8473045866 -0.3307619830 -1.4529604942
C -1.0495583072 -1.2235368451 -2.2679153041
Cl -4.6867348058 -0.4176656877 -0.7729426625
O -0.1816636893 -1.4574251356 2.8767538058
C -0.4185483498 -1.7041912627 4.2713044241
O 0.7193913457 0.4793423840 -0.3367905687
C 0.3463128007 1.6572218330 0.2733252643
O 0.0266002667 1.7148124048 1.4380708898
C 0.4181649321 2.7959852329 -0.6620598861
C 0.2247368461 4.0815568369 -0.1423597185
C 0.2718300421 5.1833600487 -0.9849327669
C 0.5073051043 5.0084028629 -2.3484185018
C 0.6965566654 3.7294312228 -2.8689089244
C 0.6548964644 2.6217119835 -2.0310810548
H 2.0260676553 -3.7824993891 -1.1830246341
H 3.1114156753 -2.8527086171 -2.2451309801
H 3.7396914842 -4.2236695007 -1.3072612641
H 3.3115441847 -2.9727805069 0.8279435482
H 4.3801607639 -2.0357935951 -0.2483167142
H -2.8072419930 -1.5653561553 3.5540362564
H -4.6425665158 -1.0911681829 1.9971794605
H 0.0071155271 -0.9416925624 -2.2461278358
H -1.4324803635 -1.1165188338 -3.2842518980
H -1.1714938740 -2.2569518311 -1.9302691511
H -0.9516327764 -0.8646724330 4.7313686121
H -0.9844965020 -2.6313505317 4.4135549513
H 0.5700835121 -1.8041994346 4.7189131213
H 0.0414464209 4.2021008462 0.9196530591
H 0.1247722687 6.1796190945 -0.5810770514
H 0.5423042932 5.8708791568 -3.0065684653
H 0.8760437065 3.5952872981 -3.9305548971
H 0.7974811249 1.6266813393 -2.4355604783
