47
CONF122
C 4.8890107877 0.4758008727 4.3115080276
C 4.2276929899 1.2812278731 3.1852899382
C 3.2159879714 2.2852690112 3.7536637514
C 3.5862390252 0.3730328644 2.1567689391
C 4.0320477085 0.3691534184 0.8328990040
C 3.4502984667 -0.4558819718 -0.1267629265
C 2.4074466631 -1.2823618635 0.2562571373
C 1.9408994890 -1.3163228231 1.5621026406
C 2.5358881256 -0.4841432321 2.5046638290
O 1.8475781480 -2.1609191934 -0.6977059283
P 0.5815329709 -1.7612100151 -1.5788594353
O 0.2228448206 -2.8031379066 -2.5602316096
O 1.0387659827 -0.3406638154 -2.1894088188
C 0.0942423271 0.6171334527 -2.5920909237
C 0.1465768158 1.8560638788 -1.9704671199
C -0.7686421598 2.8329898685 -2.3524401565
C -1.7181526784 2.5617649637 -3.3357354227
C -1.7434307989 1.3126690381 -3.9525119968
C -0.8272141767 0.3282152693 -3.5900956057
O -0.5211001147 -1.4065374299 -0.4598463716
C -1.8829997882 -1.1932769923 -0.7381568353
C -2.4309960629 0.0033344785 -0.2975261957
C -3.7830426781 0.2429085917 -0.5222933269
C -4.5667998850 -0.7059859314 -1.1766086470
C -3.9968154300 -1.9064177632 -1.5932764372
C -2.6459044843 -2.1657883040 -1.3704371173
H 4.1414900137 -0.0927535791 4.8754152746
H 5.3977976762 1.1481738861 5.0101306364
H 5.6246155786 -0.2296875630 3.9127267773
H 2.4214867187 1.7696404161 4.3039686276
H 3.7125180700 2.9733110771 4.4458204399
H 2.7524693804 2.8725906654 2.9548332900
H 4.8500893172 1.0225490370 0.5425549279
H 3.7970664856 -0.4584863666 -1.1542763862
H 1.1290702608 -1.9830147573 1.8313312140
H 2.1709796176 -0.5086277310 3.5271358038
H 0.8839503698 2.0367438971 -1.1952587910
H -0.7427381970 3.8058318796 -1.8720714399
H -2.4345891529 3.3238975579 -3.6239300311
H -2.4761246891 1.0989527890 -4.7240566771
H -0.8319929085 -0.6477380495 -4.0639291708
H -4.2212765281 1.1779395848 -0.1881227289
H -5.6194144680 -0.5128012552 -1.3550217960
H -4.6043039646 -2.6545800066 -2.0924629513
H -2.1910873442 -3.0966165334 -1.6870804565
H 5.0123760263 1.8479061376 2.6688276802
H -1.7999894730 0.7332299511 0.1974606388
