36
CONF10
C 1.3926767537 3.4917497652 -0.0642943259
C 2.3299101882 2.6544788220 -0.9452934426
C 1.6198046001 1.4983310498 -1.5783693131
C 1.9013675731 0.2123920161 -1.3670109347
C 1.1660933845 -0.9411141472 -1.9712419788
C 0.4802761684 -1.8423691947 -0.9327716848
C -0.6832671708 -1.2315625166 -0.1340314065
C -1.5584710416 -2.4463948345 0.2384552982
C -1.4995611706 -3.3451657208 -0.9967611306
C -0.1243843381 -3.0867415190 -1.5949656383
O 0.4074152443 -3.7360110013 -2.4649586797
C -0.2456802458 -0.4100017794 1.0697694064
C -1.3798916080 0.3434630090 1.7185191516
O -2.4900842735 0.4879743733 1.2605500516
O -0.9812328430 0.8832476764 2.8953239865
C -1.9830530222 1.6715416640 3.5720404481
H 1.9155192426 4.3551943328 0.3579143471
H 0.9984799837 2.8937174375 0.7639875730
H 0.5403300968 3.8625299449 -0.6429419919
H 3.1753606393 2.2871036987 -0.3520199835
H 2.7495790838 3.2996309903 -1.7290955635
H 0.7885889006 1.7500366519 -2.2406638178
H 2.7261894273 -0.0419175819 -0.6969541154
H 1.8544129049 -1.5749925919 -2.5453323463
H 0.4095809536 -0.5732597126 -2.6756283163
H 1.2415842094 -2.2221889026 -0.2293175320
H -1.2598240604 -0.5809228531 -0.8063031847
H -2.5711358439 -2.1492497232 0.5180299511
H -1.1090866678 -2.9629331363 1.0972567009
H -2.2357445105 -3.0292854198 -1.7493997252
H -1.6590053663 -4.4116631126 -0.8198638985
H 0.2410005254 -1.0400441823 1.8247056326
H 0.4993821237 0.3372888823 0.7705829810
H -2.2945275986 2.5115116942 2.9455397806
H -1.5058013163 2.0275764113 4.4848109447
H -2.8568006083 1.0580489068 3.8066563504
