47
CONF147
C -4.5921652377 -1.6848974967 0.6077876780
C -3.8303543812 -1.0697263114 -0.5704758348
C -4.1422501815 -1.8517348610 -1.8529314956
C -2.3035242356 -0.9580491298 -0.3943691663
C -1.5580600572 -2.2385188977 0.0383174774
C -0.2193761377 -1.7552613127 0.6534056203
C -0.2410426465 -0.2185328444 0.5492048085
C 0.6021170118 0.5026538779 1.6060053894
C 2.0726275112 0.2328809742 1.4154768113
C 2.7707277945 0.8757988014 0.3894502096
C 4.1165783860 0.6152753838 0.1624818430
C 4.7709710338 -0.3038270623 0.9748794812
Cl 6.4721625479 -0.6392000863 0.6982072719
C 4.1058586633 -0.9580026666 2.0027582060
C 2.7581802741 -0.6818484787 2.2144330007
C -1.7456711801 0.1170822184 0.5559818691
O -2.3195990361 -0.0889974558 1.8557401363
C -2.0879169005 1.5643687907 0.1562885428
N -1.5797250032 1.9756777691 -1.1416400144
C -2.1812512947 1.9142352998 -2.3516963731
N -1.3628609800 2.3404318760 -3.2997885005
C -0.2416962882 2.6576237593 -2.5976692847
N -0.3200442850 2.4548672941 -1.2872298610
H -5.6680248352 -1.6459235140 0.4071014528
H -4.3280472985 -2.7390758909 0.7407099830
H -4.3928352315 -1.1623696083 1.5435331346
H -4.2178157835 -0.0487886674 -0.7107009789
H -5.2208287945 -1.8852331435 -2.0362225690
H -3.7901845360 -2.8859184625 -1.7693384668
H -1.9044565468 -0.6732593206 -1.3792131432
H -2.1387874558 -2.7811511108 0.7877303657
H -1.4059521251 -2.9123134220 -0.8088908798
H 0.6559053593 -2.1737594901 0.1505029304
H -0.1578138901 -2.0508866926 1.7061272165
H 0.1439553557 0.0775681713 -0.4340085603
H 0.3079132789 0.1723061772 2.6111393382
H 0.4319988217 1.5847341118 1.5380075372
H 2.2489185015 1.5925343086 -0.2395733332
H 4.6546742675 1.1202523655 -0.6313611058
H 4.6329122722 -1.6687701844 2.6285644921
H 2.2354567890 -1.1912164117 3.0191909459
H -1.6840109226 2.2593152253 0.9000170177
H -3.1759973918 1.6790557989 0.1501320449
H -3.1979053248 1.5667867115 -2.4840879790
H 0.6544493949 3.0546586725 -3.0562390692
H -3.6612213906 -1.4035969470 -2.7293313987
H -1.8177887107 0.4338804416 2.4928140314
