45
CONF12
C 3.3302724069 2.1308318656 -1.0346842571
C 2.2539165527 1.1915061308 -0.5664118997
C 0.9288191167 1.6091931020 -0.6504045628
C -0.1661173463 0.8366385605 -0.2440932075
C 0.0759758404 -0.4377978390 0.3013370870
C 1.4016845223 -0.8587275292 0.3989402890
C 2.4960540208 -0.0930875429 -0.0225698575
C 3.8628056606 -0.6615214826 0.1023016944
O 4.8296009593 -0.1532710129 -0.4614719636
C 4.0606688535 -1.9070884399 0.9399703356
C -1.0239658927 -1.3773566485 0.8007316788
C -2.4324056091 -0.7556495905 0.6412087989
C -2.5868552725 0.2461552978 -0.5031868834
C -1.5745776140 1.4089238624 -0.3404343541
C -1.8525397572 2.1909789287 0.9633020966
C -1.7327569578 2.3945571257 -1.5113641751
C -2.5029795638 -0.4136983463 -1.8854225251
C -0.9479431109 -2.7201498961 0.0435628687
C -0.8061845527 -1.6656167541 2.3004803280
H 2.8921614998 3.1036556409 -1.2733302334
H 3.8350094559 1.7459355736 -1.9255227468
H 4.1068160737 2.2665766451 -0.2770272094
H 0.7442035100 2.5990746310 -1.0544003575
H 1.5947457764 -1.8393012122 0.8164233722
H 3.6055835836 -1.8055775836 1.9296718482
H 5.1300816871 -2.0954356631 1.0397488641
H 3.5942278715 -2.7713133177 0.4535492044
H -2.7034714086 -0.2540153701 1.5758328765
H -3.1587509999 -1.5675986164 0.5153091202
H -3.5882213352 0.6900103850 -0.4084917648
H -1.1794675471 3.0520825871 1.0288149598
H -2.8856383248 2.5584818635 0.9675093596
H -1.6964501932 1.5786541461 1.8549201179
H -1.3525099766 1.9827430121 -2.4499871393
H -2.7956408410 2.6259569956 -1.6422830432
H -1.2142978087 3.3372707862 -1.3166856624
H -2.8792938448 0.2510599881 -2.6675186906
H -1.4726315757 -0.6811447226 -2.1437693586
H -3.1040695097 -1.3285813581 -1.9076125939
H -1.7299621747 -3.3922591270 0.4136346719
H -1.0909271566 -2.5885196161 -1.0314985338
H 0.0169061808 -3.2125682365 0.1995356237
H -0.7865639011 -0.7330407695 2.8743419964
H -1.6270641344 -2.2859187070 2.6785941574
H 0.1317532182 -2.2010477461 2.4784491728
