44
CONF6
C 4.8960540653 1.8343322892 -2.2400515190
C 3.8402819386 1.2049316162 -1.3378067186
C 2.7216382300 0.4214149934 -2.1210655366
N 1.5400967660 0.4745793614 -1.2925377515
C 1.3049956280 1.6814741578 -0.4917482807
S 2.9161502941 2.5714352756 -0.4391036105
C 0.8628140054 0.7527114912 0.6929916866
C 1.1344919955 -0.4073977034 -0.2971443440
O 1.0974790332 -1.6142925833 -0.2552112892
N -0.4239282478 0.8862856452 1.2952806968
C -1.5680709295 0.6732724734 0.6041521017
O -1.5835439784 0.3968734355 -0.5953737719
C -2.8629295162 0.7442866488 1.4265436444
C -3.3119494944 -0.6780590510 1.6965540043
C -2.6298974698 -1.4815436598 2.6168522981
C -3.0220830514 -2.7923716886 2.8491861031
C -4.1081084955 -3.3238235889 2.1498273636
C -4.7953311013 -2.5380984984 1.2243526038
C -4.3926965676 -1.2239751972 1.0052955917
O -4.4525025166 -4.6185388738 2.4157857420
N -2.6598029040 1.4751491811 2.6857399356
C 2.4913532308 0.9659639100 -3.5225395447
O 1.5963790664 1.9662241291 -3.5482424466
O 3.0737804735 0.5494444625 -4.4994943036
C 4.4918029035 0.2579144484 -0.3294435847
H 5.6413704347 2.3542883577 -1.6318556329
H 4.4638437062 2.5511700788 -2.9430349066
H 5.4081522423 1.0487224243 -2.8052779240
H 3.0372648845 -0.6199081454 -2.2386136893
H 0.5242987523 2.3430057535 -0.8740841310
H -0.5121078389 1.1085051864 2.2790594941
H -1.7812654889 -1.0774961109 3.1602169511
H -2.4941557044 -3.4151905757 3.5641399136
H -5.6422477830 -2.9511650507 0.6825145228
H -4.9330999302 -0.6156749537 0.2856432006
H -5.2098387712 -4.8699916109 1.8702048324
H -2.6345352799 2.4734731639 2.5003207448
H -3.4576132722 1.3137936860 3.2914211055
H 5.1767721849 0.8132587839 0.3162068110
H 3.7502190860 -0.2354532758 0.3051364239
H 5.0600455180 -0.5129141723 -0.8628825813
H 1.5106730514 2.2792948014 -4.4658684742
H -3.6010874096 1.2111551750 0.7580986176
H 1.6293118037 0.7396930475 1.4731665406
