44
CONF43
C -3.6669275643 0.2345523788 2.2929085842
N -4.0587177638 0.2986624617 0.8907016950
C -3.3381333862 1.2695683358 0.0483433382
C -4.0066762905 1.0254395101 -1.3200616856
C -4.4144417669 -0.4758737537 -1.2742913383
C -3.9359613109 -0.9478150115 0.1136581256
C -2.4808667883 -1.4622663517 0.0686444948
C -1.5806935291 -0.4159819348 -0.5708018252
C -1.8221344614 0.9788800207 -0.0041613640
O -0.1946819360 -0.8306511532 -0.3054062139
C 0.7575716310 -0.3648754961 -1.1283155757
O 0.5480839362 0.3129331224 -2.1145853014
C 2.1379968413 -0.7500631562 -0.6169110113
C 3.1233091548 -0.9180049047 -1.7648033471
O 2.6787765834 -2.0310613237 -2.5493446367
C 2.5974322735 0.3101958466 0.3683091518
C 2.8897813180 -0.0389749355 1.6886049590
C 3.3187511568 0.9257449019 2.5969807322
C 3.4577875254 2.2520898320 2.1948220263
C 3.1646838189 2.6082053680 0.8798954947
C 2.7351222998 1.6442798875 -0.0284287899
H -4.3024527634 -0.4941247138 2.8086984382
H -2.6175364568 -0.0494068555 2.4745134801
H -3.8311494784 1.2144868463 2.7549794102
H -3.5005841504 2.2869263758 0.4221536127
H -4.8889197432 1.6620358902 -1.4242118908
H -3.3295914859 1.2547844377 -2.1480549977
H -3.9633139136 -1.0618415974 -2.0803800986
H -5.4994023193 -0.5829823798 -1.3507450559
H -4.5815285492 -1.7234984578 0.5410576860
H -2.4317647052 -2.3976548221 -0.4998433610
H -2.1311010661 -1.6753629412 1.0851696498
H -1.7110799280 -0.4116430292 -1.6566621047
H -1.3940729635 1.0390464239 1.0035246081
H -1.3188540269 1.7300133086 -0.6220585069
H 3.1590950409 -0.0013437816 -2.3680759974
H 4.1220390695 -1.1041861046 -1.3456641391
H 2.7810484874 -1.0724860795 2.0051954236
H 3.5434295826 0.6398911023 3.6200018469
H 3.7911983649 3.0047979968 2.9023394141
H 3.2675588001 3.6405051963 0.5596307868
H 2.4988838451 1.9331583021 -1.0482635674
H 2.0510761607 -1.7024867171 -0.0850876846
H 3.2592608168 -2.1032702885 -3.3166717863
