42
CONF120
C -4.7674505114 2.4862555506 3.0476654591
C -5.4369427871 1.7740323607 1.8749538336
C -4.4273372459 1.1762846338 0.9277096019
O -5.0778881000 0.5171715190 -0.1449961999
C -4.0924001760 0.4415896147 -1.1714002239
C -3.2341723036 1.7145686418 -0.9609272462
O -3.6432403826 2.2056616723 0.3172718096
C -1.7370498326 1.4726233991 -1.0096436119
O -1.4185439317 0.4578958422 -0.0628374081
C -0.1073212030 0.1014195260 0.0821166398
C 0.9453382042 0.6364264094 -0.6635666351
C 2.2476274833 0.1992700523 -0.4316875205
C 2.4935512610 -0.7733413864 0.5275330951
C 1.4469351782 -1.3098394072 1.2712980140
C 0.1511401291 -0.8694718262 1.0530473585
O 3.7825271419 -1.1783743641 0.8371331317
C 4.6002973949 -1.6295383568 -0.1769401084
C 4.1109960110 -2.2212134964 -1.3402799537
C 5.0123861413 -2.6977461360 -2.2873061437
C 6.3848356443 -2.5934328050 -2.0815475452
C 6.8574413506 -2.0065565703 -0.9100015304
C 5.9716589866 -1.5202082547 0.0433621396
H -4.1441633694 3.3120269172 2.6951430877
H -4.1294255496 1.7998819387 3.6143358642
H -5.5164932409 2.8908039671 3.7335957385
H -6.0664886184 2.4635571234 1.3023138865
H -6.0761667917 0.9581394560 2.2306139950
H -3.7480993361 0.4703651573 1.4422304286
H -3.4811074817 -0.4649131373 -1.0617468236
H -4.6032325532 0.4289784948 -2.1371317832
H -3.4703775234 2.4852349685 -1.7072887147
H -1.2076787673 2.4036070158 -0.7632773910
H -1.4485725885 1.1584051903 -2.0266718783
H 0.7732438675 1.3967633270 -1.4150134517
H 3.0724103502 0.6150151562 -1.0009310293
H 1.6619775429 -2.0643133991 2.0200313661
H -0.6787874720 -1.2704407131 1.6245037635
H 3.0419665587 -2.3096661162 -1.4977632543
H 4.6323706621 -3.1620645649 -3.1919558255
H 7.0796070634 -2.9679796576 -2.8252722666
H 7.9254861596 -1.9202358945 -0.7370256153
H 6.3211438419 -1.0585899496 0.9603530425
