37
CONF106
C -2.3427368700 -1.7875148744 -2.8498818318
C -1.7672086145 -0.3983059194 -3.0188742784
O -0.6790950012 -0.1353590952 -2.0752431028
P -1.0278274154 0.0473537966 -0.5308487572
O -2.3166603299 0.6929981533 -0.2025011237
O -0.7743520928 -1.3937651304 0.1048059518
C -1.5901152943 -1.8609552969 1.2362349378
C -0.8072464509 -2.9504407303 1.9247375216
O 0.2922558957 0.9062302468 -0.1295323050
P 1.0512237380 0.9027844250 1.3199913028
O 0.1944986270 0.5104267804 2.4566407702
O 2.3033984392 -0.0399150979 1.1036737505
C 3.1608938177 0.0721270132 -0.0826969556
C 2.9938449164 -1.1642205233 -0.9340345507
O 1.6803781955 2.3643868338 1.3461274220
C 0.9093660660 3.4774255241 1.9157129991
C -0.2733609764 3.8596338955 1.0539364717
H -2.8563137120 -1.8915807852 -1.8893266319
H -1.5573717017 -2.5454069705 -2.9161878298
H -3.0733754790 -1.9704783523 -3.6442934895
H -1.2981242098 -0.2763751805 -3.9974364067
H -2.5312283230 0.3748169755 -2.8888864384
H -2.5375664828 -2.2268155172 0.8276220790
H -1.7815276375 -1.0208003022 1.9070150589
H -1.3959559325 -3.3439767026 2.7590709258
H -0.5874673092 -3.7713737122 1.2363033193
H 0.1311391455 -2.5514258150 2.3189716604
H 4.1784822202 0.1682181104 0.3047301892
H 2.9113342637 0.9820447531 -0.6372530391
H 3.6803830439 -1.1124553950 -1.7852150361
H 3.2226313321 -2.0636734757 -0.3562209206
H 1.9723728500 -1.2398808668 -1.3163773069
H 0.5997949682 3.1921009170 2.9259193202
H 1.6384108001 4.2877485532 1.9799025598
H -0.7361717570 4.7587356312 1.4734756477
H 0.0430049345 4.0776930970 0.0301081390
H -1.0297068539 3.0699947298 1.0298303846
