39
CONF137
C 5.1602976797 0.2495787558 -1.7286306899
C 4.3076750091 1.4826528411 -2.0307421767
C 2.9955539845 1.5320765943 -1.2435122245
C 2.0493635098 0.3880976113 -1.6071550153
N 0.7661734333 0.5273383602 -0.9210145378
C 0.2943708356 -0.3796077458 -0.0568436930
O 0.7973835681 -1.4786539694 0.1795132141
N -0.9087443574 0.0132201966 0.6093104941
C -1.3635561656 1.3011866175 0.9328430310
C -0.7643065932 2.5545809444 0.8966506067
C -1.5272258592 3.6301516989 1.3524801029
C -2.8274770031 3.4534314794 1.8413486059
C -3.4077462515 2.1898190794 1.9059141457
C -2.6609286406 1.1058492158 1.4515158099
N -2.9928577471 -0.2435951973 1.4654286956
C -1.9490074086 -0.8558771165 0.9735674554
N -1.7797356015 -2.2059651161 0.7916162218
C -2.7781869017 -3.1609972305 0.8065509578
O -3.9679008304 -2.9647182078 0.9343423210
O -2.2021210422 -4.3710804301 0.6447996836
C -3.1260804030 -5.4859847395 0.6153598236
H 6.1242994288 0.3065238487 -2.2434573815
H 4.6698691724 -0.6743327956 -2.0513310690
H 5.3562778959 0.1674317627 -0.6535104344
H 4.0851687630 1.5261373101 -3.1050505005
H 4.8829228131 2.3858391281 -1.7968722083
H 3.2027444213 1.4938044903 -0.1660899353
H 2.4874838975 2.4844366916 -1.4410626959
H 2.4645119381 -0.5804232027 -1.3234770941
H 1.8708434143 0.3757058178 -2.6899545897
H 0.2017280509 1.3346978144 -1.1437367262
H 0.2513646230 2.7115074105 0.5518424134
H -1.0938414225 4.6245740678 1.3318162300
H -3.3869020955 4.3167192282 2.1870648505
H -4.4056037968 2.0425391832 2.3060617163
H -0.8260968686 -2.5060964743 0.6060569877
H -2.5014639480 -6.3677022624 0.4797381516
H -3.8227791247 -5.3771754767 -0.2190528469
H -3.6754685567 -5.5456916967 1.5576726973
