65
CONF60
C 2.7073256332 3.2339817662 4.3468647495
O 3.7939102041 2.3738832691 3.9829641842
C 3.4832880364 1.0938026640 3.6170156959
C 2.1903766003 0.5682443265 3.6000646027
C 1.9961613577 -0.7567107526 3.2040137382
C 3.0567427322 -1.5753205779 2.8214351568
C 4.3458159036 -1.0276466721 2.8547974536
C 4.5643155679 0.2849721676 3.2463884426
C 2.8297160406 -2.9786477270 2.3249791794
C 2.9928894557 -3.0931588384 0.7995240704
N 2.1638070040 -2.1410135107 0.0590719826
C 2.5764567423 -2.0570173425 -1.3450921544
C 1.8218804210 -0.9413801023 -2.0622545595
C 0.3165386523 -1.1662466094 -1.9716912117
C -0.0970488714 -1.3747519186 -0.5125982194
C 0.7378641411 -2.4714779065 0.1378303023
N -0.3803540100 -0.0178308473 -2.5726297045
C -1.7183993216 -0.1030879531 -2.8262720555
N -2.3747447880 -1.2122116651 -3.1336185794
C -3.6794073697 -0.7975739608 -3.3551955402
C -4.8053404788 -1.5411920284 -3.7049308313
C -6.0179156202 -0.8677456594 -3.8569406561
C -6.1129138900 0.5168242718 -3.6654161309
C -4.9947640434 1.2801393505 -3.3194825307
C -3.7931883115 0.6019624674 -3.1739547523
N -2.5133451816 1.0304350394 -2.8462434615
C -2.1258939080 2.3461385068 -2.3526691952
C -1.7905019168 2.3249254169 -0.8744245974
C -2.5939234558 1.6155032656 0.0221682295
C -2.2953289145 1.5898902138 1.3798299895
C -1.1812144479 2.2875176337 1.8183925766
C -0.3570155611 2.9973908729 0.9639037585
C -0.6732775375 3.0084926523 -0.3933699383
F -0.8874276785 2.2712819640 3.1454181131
H 2.0038960860 3.3532776741 3.5140073426
H 3.1585413168 4.1973384511 4.5865552071
H 2.1747723203 2.8482794435 5.2245036319
H 1.3353241799 1.1673011351 3.8871456195
H 0.9837254349 -1.1527327840 3.1922733011
H 5.1956569923 -1.6416893007 2.5662539576
H 5.5669126400 0.7008773516 3.2729577106
H 3.5563519506 -3.6637526657 2.7781348172
H 1.8381358563 -3.3254523290 2.6325945665
H 2.7911618953 -4.1389883298 0.4926815139
H 4.0399559631 -2.8817676082 0.5489684995
H 2.4049986999 -3.0177992341 -1.8739719620
H 3.6527675604 -1.8538382138 -1.3820567022
H 2.0721865678 0.0197195660 -1.5917836230
H 2.1337979294 -0.8945193426 -3.1113847484
H 0.0507855043 -2.0563859397 -2.5539804172
H 0.0513930154 -0.4338093254 0.0356104698
H -1.1611238078 -1.6308181038 -0.4568875362
H 0.4450622327 -2.5714641293 1.1871573273
H 0.5287012228 -3.4444169653 -0.3544264556
H -0.0852038074 0.8638352399 -2.1715151055
H -4.7357718111 -2.6149877939 -3.8505130839
H -6.9076428312 -1.4280503096 -4.1274164055
H -7.0721242507 1.0096929212 -3.7873472395
H -5.0756837919 2.3523112078 -3.1720023557
H -1.2750798086 2.7251671107 -2.9307218085
H -2.9635324202 3.0237075303 -2.5448260755
H -3.4597335021 1.0692463137 -0.3412703558
H -2.9100193699 1.0434921474 2.0868668898
H 0.5108699651 3.5212933926 1.3493329736
H -0.0341655472 3.5525623200 -1.0832751549
