52
CONF25
C -3.2034834832 -1.1453932077 1.3101272949
O -3.4671598646 -0.1070534166 0.3561606894
C -2.3914368193 0.4885379827 -0.2290627810
C -1.0632170111 0.1382030341 0.0242232988
C -0.0294173007 0.8107646738 -0.6283407752
C -0.3172470106 1.8186453467 -1.5493819300
C -1.6452880877 2.1687232266 -1.8062078252
C -2.6898406131 1.5124687988 -1.1386136737
O -3.9950541069 1.8843194109 -1.3597027795
C -4.6137947717 1.1464673609 -2.4350814873
O -2.0307357622 3.1337156095 -2.6861261251
C -0.9935048869 3.8394601322 -3.3816559130
C 1.4283687784 0.4723378081 -0.3378436895
C 2.0270177720 1.2949231716 0.8059990219
C 1.4614812924 0.8830374102 2.1536112130
C 1.8554268722 2.0634600444 3.0288244515
O 1.7889784531 3.2127940681 2.1157261899
C 1.8933282672 2.7987849816 0.8252341168
O 1.9192637419 3.5888430347 -0.0893782499
C 1.9827714623 -0.4846850836 2.5203086084
C 1.8377795729 -1.4404662650 1.3328457596
C 1.9696620833 -2.8206811940 1.6023314998
C 1.8629145733 -3.6958831628 0.5514878305
C 1.6390614878 -3.2553841535 -0.7478603559
C 1.5136022398 -1.9215088784 -1.0415206458
C 1.6167056248 -0.9967199871 0.0199859194
O 1.5792197605 -4.3229758693 -1.6033820265
C 1.7806980637 -5.5017502059 -0.7907962649
O 1.9557326918 -5.0628872104 0.5748501862
O 1.2566757075 -0.9334060972 3.6759034213
H -4.1811445331 -1.4735559509 1.6639485208
H -2.6788285069 -1.9866351704 0.8424567459
H -2.6141674415 -0.7640217583 2.1522455383
H -0.8271067801 -0.6679510556 0.7067601363
H 0.4973817435 2.3238815378 -2.0512880654
H -4.6287193538 0.0746751754 -2.2055994425
H -4.0772035992 1.3173232238 -3.3755597916
H -5.6360220530 1.5201239287 -2.5199916612
H -1.5060432671 4.5601091486 -4.0193833303
H -0.3993180928 3.1563763959 -3.9994469630
H -0.3388154660 4.3676473700 -2.6787783836
H 1.9999949389 0.6791881416 -1.2499127829
H 3.1160629701 1.1131523613 0.8118086896
H 0.3671954700 0.8372688131 2.0846795392
H 2.8854821025 1.9838374540 3.3951148646
H 1.1738083353 2.2703062789 3.8537662691
H 3.0519667679 -0.4040248659 2.7742263748
H 2.1442268469 -3.1841467036 2.6090561203
H 1.3326740800 -1.5791427244 -2.0554914245
H 0.8931958342 -6.1400773241 -0.8551063404
H 2.6867093454 -6.0192727886 -1.1233913493
H 1.8101623555 -1.5517536655 4.1672213600
