55
CONF380
C -5.6719342703 -3.6872845783 1.2279518030
C -5.0971266726 -3.0486097567 -0.0129219227
O -4.2756829275 -1.9274645625 0.4286594233
C -3.6084876921 -1.2745612475 -0.5487680845
O -3.6670117530 -1.5500076749 -1.7346459066
N -2.8685495261 -0.2605897966 0.0079095856
C -1.8839060719 0.4748009246 -0.6741508779
C -0.7123673987 0.7925865597 0.0158530070
C 0.3148004491 1.4640568917 -0.6328627159
C 0.1351331337 1.9372722025 -1.9351761533
C -1.0548083417 1.6601628449 -2.6059276194
C -2.0519458417 0.9113494723 -1.9928750838
S 1.4307048139 2.8887388022 -2.6956815452
C 2.0516848823 3.7008121415 -1.2348009878
C 2.5417271317 5.0049212054 -1.3077982216
C 3.0357670852 5.6166223383 -0.1603907024
C 3.0100109372 4.9459026305 1.0618989834
C 2.5064656701 3.6516127887 1.1396872203
C 2.0506761711 3.0190156962 -0.0135492495
N 1.5693553561 1.6738088448 0.0097263599
C 2.4406528900 0.6380635824 0.3460940226
O 3.5418561017 0.8784886347 0.8340566058
C 1.9904841295 -0.7782960092 0.1023524726
C 1.6717051459 -1.4832969426 1.4525989171
N 1.0167303621 -2.7816503510 1.3476832599
C 1.7552267968 -3.7487161563 0.5313004073
C 1.0771119094 -5.1065460986 0.6211424653
O -0.2835942327 -5.0318518857 0.1750494454
C -1.0079812556 -4.0875727954 0.9729015322
C -0.3762104236 -2.7065255137 0.8986508130
H -6.2972286020 -4.5358801522 0.9362173775
H -6.2902954653 -2.9774117211 1.7843554444
H -4.8750421209 -4.0537182581 1.8815608882
H -5.8779826629 -2.6667622602 -0.6781670873
H -4.4647800425 -3.7438767913 -0.5735148352
H 2.6140077402 -1.6094432487 1.9993054985
H -1.2070383703 2.0330203073 -3.6137510664
H -2.9684276402 0.6953822441 -2.5254756107
H 2.5314265142 5.5341656692 -2.2552863501
H 3.4225300033 6.6287279151 -0.2191969916
H 3.3784211961 5.4330253566 1.9585813898
H 2.4775107420 3.1190871171 2.0833383971
H 1.1361808801 -0.8320189355 -0.5732024003
H 2.8374192756 -1.2806701695 -0.3744203861
H 1.0281488262 -0.8360203972 2.0603998683
H 1.8006202942 -3.4464642843 -0.5320634141
H 2.7835174427 -3.8277616937 0.9060894099
H 1.5795729247 -5.8295319718 -0.0276813835
H 1.1048047075 -5.4720963333 1.6602507293
H -2.0287577588 -4.0599970019 0.5790287006
H -1.0339329149 -4.4321147929 2.0193516215
H -0.9286565231 -2.0254025613 1.5579276702
H -0.4708271152 -2.3305577832 -0.1389153157
H -0.5765714227 0.4724171925 1.0435867987
H -2.8004840798 -0.2774601796 1.0162818194
