29
CONF22
C -0.4199602862 -1.0633719788 -3.0513608306
C 0.0766423323 0.2983385964 -2.6318995253
O -0.6496477983 0.6752629066 -1.4190296159
P -0.0264058792 1.6432396219 -0.3060780241
S 1.5315897338 2.6776502745 -0.7185280575
O -1.2789585013 2.4724285380 0.2097011506
C -2.5206291678 1.8180612643 0.6331916795
C -2.7427538672 2.0945030076 2.1015737141
O 0.1028342433 0.6201994465 1.0220736962
C 0.9734942293 -0.4060490097 1.0758505104
N 1.5591459228 -0.8334341992 -0.0296975020
C 2.4057885071 -1.8432699233 0.0093884556
C 2.7221470188 -2.5091179638 1.1941047674
C 2.1078419559 -2.0741014523 2.3659661775
C 1.2232027315 -1.0109692459 2.3167428185
Cl 0.4399842855 -0.4442231389 3.7589285077
Cl 3.8340937260 -3.8391678421 1.2481199934
Cl 3.1169536381 -2.3272710925 -1.5074137947
H 0.0832933761 -1.3619806845 -3.9761118832
H -0.1938828438 -1.8055761313 -2.2812749394
H -1.4984779848 -1.0526098508 -3.2308747340
H -0.1323327547 1.0646350271 -3.3852130798
H 1.1480087895 0.2890854287 -2.4186219975
H -2.4682779308 0.7449359207 0.4260113358
H -3.3064986842 2.2537065754 0.0094811690
H -2.7743483546 3.1704703751 2.2908161906
H -3.6960926875 1.6573589693 2.4160689684
H -1.9415817796 1.6538391082 2.7001036028
H 2.3248283265 -2.5625728382 3.3080837455
