73
CONF2420
C -2.8752567356 2.5839186537 -3.3433191262
C -3.0544088240 2.4675173225 -1.8453065891
O -4.1221280985 1.5160821771 -1.6288142225
C -4.4094301698 1.2475526656 -0.2723665271
O -3.3132320789 0.6560329686 0.4088720335
C -3.0897493266 -0.7238893277 0.1085189614
C -3.6340562415 -1.5945343459 1.2353621293
O -5.0544302665 -1.4689812269 1.2346892183
C -3.2023859095 -3.0514475955 1.0747026823
O -3.6813100114 -3.8372701658 2.1674356421
C -1.6812835711 -3.1304549087 0.9315741208
C -1.1631301651 -4.5289442390 0.6497506774
O -1.7473103078 -5.1097837683 -0.5164800762
O -1.2897606311 -2.3143261334 -0.1904867423
C -1.5833918093 -0.9429587612 -0.0004883606
O -1.1332644479 -0.2603127384 -1.1495364249
C 0.1970419933 0.0245168225 -1.2645846710
C 0.5192610398 0.8474733179 -2.3460870492
C 1.8419583135 1.2083430555 -2.5430178406
O 2.1505666957 2.0271951677 -3.5615332604
C 2.8640189604 0.7447000448 -1.6663235642
C 4.2167972034 1.2189536034 -1.7834870504
O 4.5807174221 2.0000063254 -2.6853791549
C 5.1729301696 0.7595108155 -0.7154511523
C 4.7879367393 -0.6226387000 -0.2059429113
O 3.4011229754 -0.6063277244 0.2662121977
C 2.4888530391 -0.1091355050 -0.6021071939
C 1.1664204978 -0.4743332113 -0.3900582325
C 5.6423546983 -1.1074455971 0.9261342712
C 6.4851107038 -2.2063350715 0.7528183213
C 7.3091108164 -2.6465449622 1.7816982486
C 7.2835295756 -1.9891135357 3.0119173098
O 8.1037755463 -2.4611654423 3.9945793012
C 6.4377763716 -0.8925487815 3.2047594381
C 5.6300226234 -0.4564309354 2.1627805245
C -4.7585008407 2.5142816440 0.5082370594
O -6.0252622270 2.9611733011 0.0285959874
C -3.6814566401 3.5798073390 0.2960767366
O -4.1123671121 4.8416170707 0.8331615636
C -3.4181833231 3.7966425004 -1.1852924821
O -2.3177991542 4.6896138306 -1.3803495044
H -3.7888746377 2.9687830390 -3.8082695852
H -2.0507283615 3.2632660856 -3.5717552018
H -2.6477400006 1.6034382004 -3.7717174926
H -2.1342151006 2.0863131074 -1.3808761087
H -5.2679879041 0.5671997861 -0.2937908057
H -3.5542712191 -0.9978739761 -0.8485373789
H -3.2201938050 -1.2131264906 2.1864701020
H -5.3884474808 -2.0552789879 1.9278414289
H -3.6673365187 -3.4717137146 0.1758950740
H -3.2693783152 -3.5083781783 2.9798950227
H -1.1991757414 -2.7554304271 1.8518389572
H -1.4225521545 -5.1768569933 1.4912298385
H -0.0680448179 -4.4872600575 0.5650238012
H -1.4924237846 -4.5631075782 -1.2711031555
H -1.0781787705 -0.5551700789 0.9002395663
H -0.2558002364 1.2107033606 -3.0098609572
H 3.1308870333 2.1977361370 -3.4898965538
H 6.1916886956 0.7453613868 -1.1121427755
H 5.1413637280 1.4884244089 0.1066439254
H 4.8308761178 -1.3400477188 -1.0370245400
H 0.9339148547 -1.1653420004 0.4087888813
H 6.5007219981 -2.7261400575 -0.2011513889
H 7.9661302872 -3.4993318871 1.6453482609
H 7.9905871784 -1.9295346953 4.7943441996
H 6.4183320431 -0.3870301206 4.1666072542
H 4.9761510404 0.3962769572 2.3207138831
H -4.8194833205 2.2582298830 1.5770531194
H -6.1243074118 3.8746472299 0.3345185171
H -2.7485491533 3.2547214255 0.7773277101
H -3.9891605160 4.8207070861 1.7912657317
H -4.3268041927 4.1977428230 -1.6613807266
H -2.4982059155 5.4742294295 -0.8450018070
