37
CONF609
C -2.4343395495 -1.6759626683 1.7839257060
C -2.2932268685 -1.3321318053 0.3224361593
O -1.7666519998 0.0353669814 0.2488955751
P -1.2282496742 0.5538524751 -1.1659337434
O -2.0095521400 0.1706196613 -2.3561697480
O -0.9981825984 2.1069220810 -0.9040380794
C -2.0149626526 3.0539522786 -1.3507682511
C -3.2405986038 3.0213120162 -0.4632120119
O 0.3087629782 0.0241353267 -1.2474376682
P 1.2839523285 -0.4705819199 -0.0481559920
O 0.8505802996 -1.7027657473 0.6478312899
O 2.6868872580 -0.5565712305 -0.8013228776
C 3.0964739065 -1.8235590147 -1.4029782078
C 2.3330918532 -2.1172380166 -2.6764661550
O 1.4163935807 0.8528168623 0.8246291721
C 1.6215125524 0.7413360274 2.2641682842
C 3.0407054909 0.3321005672 2.5940430171
H -3.0939153604 -0.9651855242 2.2896745893
H -1.4530833421 -1.6684874911 2.2643089854
H -2.8617626845 -2.6784994373 1.8823369419
H -1.5916297059 -2.0126024194 -0.1704692959
H -3.2505373748 -1.3494255016 -0.2085577483
H -2.2664676341 2.8299599074 -2.3926343623
H -1.5112366832 4.0223261452 -1.3035375982
H -3.9329357980 3.8115206074 -0.7713049621
H -3.7604180275 2.0625670535 -0.5464764552
H -2.9667258604 3.1834003504 0.5827195431
H 2.9649713531 -2.6186446095 -0.6612606477
H 4.1629444733 -1.6879838316 -1.5982457595
H 2.7479819911 -3.0150805695 -3.1459271608
H 1.2739402416 -2.2980576830 -2.4740011116
H 2.4155931199 -1.2847572612 -3.3800739976
H 1.3913648328 1.7405126610 2.6412003625
H 0.8925568080 0.0303724509 2.6664414138
H 3.7582410841 1.0220352447 2.1420367836
H 3.1802774277 0.3424599887 3.6798527240
H 3.2482457775 -0.6800342624 2.2344716778
