46
CONF77
C -0.4632926300 3.5808169225 0.0938686340
C -1.4451633171 2.9685547679 -0.9029014594
C -1.5673791102 1.4550676407 -0.7245592970
C -2.5328617324 0.8518897509 -1.7265673654
O -2.5690804864 -0.6028846333 -1.5730493241
C -3.3904777854 -1.0945749728 -0.6433781912
O -4.1954864956 -0.4520158649 -0.0000038349
C -3.2569928437 -2.6116325039 -0.5045237357
C -4.2216899673 -3.3025484860 -1.4559948135
O -1.9434708599 -3.0788908750 -0.8304821671
C -0.8940986813 -2.6174186726 -0.0827101488
C -1.0274247299 -1.8776930573 1.0945914387
C 0.1146795458 -1.4445616904 1.7667068274
C 1.3635187135 -1.7603231535 1.2624950002
C 1.5104929470 -2.5078722401 0.1002357639
C 0.3766784049 -2.9349078981 -0.5741755118
O 2.5051267562 -1.3658111825 1.9760223088
C 3.1319740503 -0.2272600542 1.5857538792
C 4.3111343544 0.0959985203 2.2728658244
C 5.0432043759 1.2220758188 1.9854631322
C 4.5869378675 2.0736264351 0.9649630150
C 3.4116721081 1.7714350443 0.2661412522
C 2.6895383134 0.6287709638 0.5766207729
C 5.3235688718 3.2439736810 0.6457657357
N 5.9235071330 4.2008859337 0.3833944420
F 4.7283201334 -0.7376558667 3.2466171977
H -0.3776290202 4.6627828553 -0.0452443947
H -0.7875911015 3.3961466020 1.1238577172
H 0.5342757764 3.1440974603 -0.0259694132
H -2.4334542581 3.4300883398 -0.7816478711
H -1.1190492143 3.1882565556 -1.9276150863
H -0.5833743914 0.9850537908 -0.8498305022
H -1.9092687648 1.2277071780 0.2928968969
H -3.5451249967 1.2485218298 -1.6107961290
H -2.1932462217 1.0051014055 -2.7533583177
H -3.5074421379 -2.8642934811 0.5331816722
H -3.9790806371 -3.0531205964 -2.4924514599
H -4.1544586014 -4.3845098390 -1.3193722792
H -5.2439354256 -2.9830693519 -1.2394034403
H -1.9975907115 -1.6261018071 1.5056066929
H 0.0286383347 -0.8622799382 2.6781770370
H 2.5018050739 -2.7436880682 -0.2730372328
H 0.4602707507 -3.5132404427 -1.4882080983
H 5.9497891796 1.4348319796 2.5402325578
H 3.0645437380 2.4326629874 -0.5192851670
H 1.7789879683 0.3980081018 0.0361301289
