51
CONF16
C 1.3208697256 1.7485987027 0.4192088475
C -0.1530482169 1.6377168190 0.1499187438
C -0.9966100714 1.2184073725 1.1087988879
C -2.4475566321 1.0242081767 0.9573735658
C -3.0734896669 -0.3891334211 1.2030796121
C -3.3853114440 0.7834210729 2.1093855319
C -2.8985279501 0.8390526911 3.5404679431
C -4.7874059170 1.3374941241 1.9449699844
C -2.1314795606 -1.4750514675 1.5189982571
O -1.3724037758 -1.5479118985 2.4673840069
O -2.1712323751 -2.4152549089 0.5356199913
C -1.1340818968 -3.4463547997 0.6117208814
C 0.1623426968 -2.9411709679 0.0825084985
C 1.2108657507 -2.4612239692 0.8058869543
O 2.2292786198 -2.0888883356 -0.0252805962
C 1.8169341603 -2.3346644785 -1.3139514084
C 0.5578883993 -2.8493238303 -1.2955273281
C 2.7908596928 -2.0282908629 -2.3963170607
C 3.1217237741 -0.5526683415 -2.4958236512
C 2.3180446384 0.3010874932 -3.2546857789
C 2.6053589113 1.6612091866 -3.3345783144
C 3.6999980374 2.1860154703 -2.6509235419
C 4.5053787314 1.3419158923 -1.8897608936
C 4.2181134633 -0.0192306821 -1.8146302939
C -0.5546547425 1.9938961417 -1.2516419415
H 1.6761315134 2.7714647591 0.2385796442
H 1.8830141959 1.1022180736 -0.2682274311
H 1.5698353849 1.4658125723 1.4455020366
H -0.5684912174 0.9638133290 2.0745126244
H -2.8999930023 1.5113706809 0.0990475527
H -3.8345943523 -0.6653517582 0.4804038791
H -2.9205194220 1.8791803238 3.8847920771
H -3.5700319843 0.2581548188 4.1822097671
H -1.8924788232 0.4453276433 3.6678656418
H -5.1158947153 1.2944258114 0.9023550683
H -5.4976688022 0.7674608278 2.5543550885
H -4.8189843578 2.3825713757 2.2724901576
H -1.0396924773 -3.7849619310 1.6453902799
H -1.5227257347 -4.2556842079 -0.0086714452
H 1.3797389295 -2.3218888023 1.8622471278
H -0.0208537128 -3.1460679695 -2.1586748321
H 2.3529304567 -2.3779526946 -3.3356134575
H 3.7127293715 -2.5985326911 -2.2280651825
H 1.4622353023 -0.1050356187 -3.7881754690
H 1.9728368318 2.3119074959 -3.9309489398
H 3.9249375638 3.2462338308 -2.7127356917
H 5.3617083197 1.7424953366 -1.3555923573
H 4.8522750225 -0.6755326474 -1.2248006005
H -0.1884044266 2.9957378456 -1.5086943497
H -1.6317644853 1.9648665698 -1.4204741181
H -0.0781287359 1.3041114343 -1.9595713389
