59
CONF301
C 5.5946342815 3.7983935838 3.6653773513
C 4.0762725050 3.6130528391 3.7352620900
C 3.8033829804 2.5956691011 2.6185327677
C 5.0613957803 1.6672261634 2.5787031354
C 6.0918124428 2.3578256738 3.5116708696
C 5.6025808497 1.5333933479 1.1555252033
C 4.6344780282 0.8529758925 0.2259914633
O 4.5474997785 1.1396655008 -0.9600450750
N 3.8368052427 -0.1607324591 0.7684359189
C 3.8148471867 -0.4988591928 2.1256904787
O 3.0706494188 -1.3824940763 2.5288711579
C 4.7360310300 0.2531930718 3.0512051864
C 2.8987965431 -0.8567004607 -0.1316656991
C 1.5462354432 -0.1522780733 -0.1938810917
C 0.5957131779 -0.8687394750 -1.1517909501
C -0.7635865179 -0.1768745289 -1.2067486871
N -1.6591126248 -0.7261108781 -2.2338885134
C -2.8260968675 0.1503531798 -2.4028868254
C -3.7498196329 -0.3854691774 -3.4923800430
N -4.1815806168 -1.7436379999 -3.1586730579
C -3.0350379105 -2.6333954226 -2.9701361538
C -2.1100355889 -2.0811738133 -1.8889994526
C -5.3817287149 -1.9834547773 -2.5488317876
N -6.2940551495 -0.9802940708 -2.5442375833
C -7.4774605449 -1.2573978644 -1.9999624790
C -7.7929100050 -2.4946982486 -1.4505067996
C -6.7837128923 -3.4496550543 -1.4977805795
N -5.5856444633 -3.2202990421 -2.0317915890
H 6.0143622915 4.3011481076 4.5419715605
H 5.8568197116 4.3896394563 2.7786209081
H 3.8055648774 3.1868636002 4.7095033530
H 3.5126111858 4.5419011945 3.6065097612
H 3.7042659483 3.1219401245 1.6614357039
H 2.8773817655 2.0322669740 2.7759382034
H 7.1110852610 2.2827343216 3.1199474578
H 6.0766734257 1.8662184862 4.4922633317
H 5.8473598287 2.5049775029 0.7183474554
H 6.5212909765 0.9287240542 1.1617715102
H 5.6607450592 -0.3370555780 3.1345081224
H 4.2638891725 0.2554856337 4.0380893846
H 2.7838621576 -1.8771820862 0.2391598875
H 3.3590301939 -0.8886771718 -1.1211715020
H 1.1107073785 -0.1193671713 0.8125475924
H 1.6951727993 0.8849326075 -0.5189951281
H 0.4878646170 -1.9109119838 -0.8283762310
H 1.0292769161 -0.8865725754 -2.1601815923
H -0.6063619566 0.8831467618 -1.4453756468
H -1.2378252147 -0.2126407239 -0.2049915336
H -3.4028507303 0.2446012504 -1.4599449970
H -2.4780971344 1.1510653571 -2.6847511472
H -3.2069158617 -0.4289970283 -4.4451169263
H -4.6170822756 0.2622297611 -3.6106155210
H -2.4926035618 -2.6900299963 -3.9225036394
H -2.6436591895 -2.0904414914 -0.9161950119
H -1.2433907883 -2.7438310748 -1.8017484890
H -8.2066333817 -0.4475776160 -2.0006242404
H -8.7598416437 -2.6992640322 -1.0085421388
H -6.9415468823 -4.4455901170 -1.0845967073
H -3.3792602487 -3.6309045332 -2.7016745061
