60
CONF20
C 0.0809817760 -1.9320907360 -1.2657320556
C -0.7615785853 -1.8019478142 -0.0465882106
C -1.3588199861 -0.6511321742 0.4717929947
N -2.0570491753 -1.0319162515 1.5853119541
N -1.9358573934 -2.3452461477 1.8188214324
C -1.1624380936 -2.8266552257 0.8310838563
C -0.8222018531 -4.2758723568 0.7541870092
C -2.8082863826 -0.1962248465 2.5105252979
C -1.3414994658 0.6978088700 -0.0391225211
C -0.2393255341 1.3713452813 -0.4639675723
C -0.4404257795 2.5994657466 -1.1501919690
N -0.5654449507 3.6042301936 -1.7161518846
C 1.1572331441 0.9400554546 -0.2545877754
C 2.1089771876 1.1184000363 -1.2598879231
C 3.4218049333 0.6925742313 -1.0793607222
C 3.8321195993 0.0844032019 0.1098756114
C 2.8711669561 -0.0621700014 1.1230803025
C 1.5625557657 0.3593260648 0.9535711079
C 5.2591965912 -0.4116555268 0.3410848894
C 5.2240928085 -1.9269030352 0.6213503398
C 6.1655730285 -0.1657524651 -0.8708427853
C 5.8625856383 0.3195862912 1.5559248574
O -2.5621861328 1.3676694264 -0.1044557914
C -3.4434854229 0.9643916158 -1.1002053939
O -3.1481106891 0.1105132022 -1.8959743500
C -4.7309489603 1.7655649719 -1.0453091232
C -5.3769504805 1.6179640062 0.3426700425
C -4.3903705858 3.2449372927 -1.3121700149
C -5.6771554590 1.2401549176 -2.1271723620
H -0.1604479506 -1.1551467691 -1.9965243140
H 1.1474746122 -1.8341306890 -1.0254403738
H -0.0685910777 -2.9087950189 -1.7348789630
H 0.2618063072 -4.4271529184 0.7934612621
H -1.2800179729 -4.8175207490 1.5845112427
H -1.1779570609 -4.7140769135 -0.1846667746
H -2.4100927433 0.8195811788 2.4892400142
H -3.8686819786 -0.1740723909 2.2418185707
H -2.6958331960 -0.6086559912 3.5144055272
H 1.8201181700 1.5765305500 -2.2016428874
H 4.1238300348 0.8399048153 -1.8911809651
H 3.1493563478 -0.5068842953 2.0732378287
H 0.8496994390 0.2427820862 1.7633734115
H 4.6337367157 -2.1594411092 1.5124714294
H 6.2422296938 -2.2974658175 0.7831880281
H 4.7912384007 -2.4662155725 -0.2279213415
H 7.1681827447 -0.5452884516 -0.6507501846
H 5.7977067396 -0.6850662281 -1.7618551473
H 6.2533085847 0.9013719936 -1.1000578968
H 6.8871592862 -0.0286515497 1.7258616665
H 5.2862842093 0.1330732304 2.4666441389
H 5.8896073105 1.4003567581 1.3813852957
H -5.5972352589 0.5686762267 0.5637611503
H -4.7326985958 2.0185467071 1.1290772180
H -6.3189263819 2.1750650471 0.3501433484
H -5.3215677523 3.8196826064 -1.3269082825
H -3.7413126685 3.6513541464 -0.5328445050
H -3.8947594266 3.3649248176 -2.2806485628
H -6.6051837528 1.8185579041 -2.0993403342
H -5.9185560776 0.1865043304 -1.9611709703
H -5.2340282215 1.3408271282 -3.1214310694
