31
CONF6
C 5.8577584244 1.1068168181 -0.6652327723
C 4.4904949901 0.5831280744 -0.3508632053
N 3.8427483444 1.1223953991 0.6701450717
C 2.6238169350 0.6447034252 0.9401148610
N 1.7638941167 0.9952106007 1.8974801261
C 0.7271203183 0.1686905283 1.6690331113
N 0.8146510983 -0.6894736294 0.6475973494
N 2.0430464372 -0.3866014475 0.1787089277
C 2.6946625805 -0.9499759960 -0.8654712506
C 3.9393246785 -0.4642632173 -1.1452609533
S -0.8072274503 0.3045581055 2.6106252929
O -1.6257568363 -0.8584719261 2.3003380939
O -0.4668175020 0.7354984125 3.9584225437
N -1.5593444501 1.6661610809 1.8609336192
C -2.0138369000 1.4799420512 0.5344350881
C -3.2689217314 0.9176284849 0.2783643886
C -3.7410774138 0.7182304274 -1.0084045308
C -2.9509590953 1.1053737385 -2.0849594296
C -1.7017079273 1.6843645121 -1.8825191611
C -1.2603761048 1.8461409589 -0.5832341611
F -0.0451959214 2.3986762144 -0.3646563801
F -4.0437026612 0.5825297730 1.3137498100
H 6.6010615768 0.3055356937 -0.5900737999
H 6.1208855590 1.9061634842 0.0269897324
H 5.8968260652 1.4883717038 -1.6912786656
H 2.1838934754 -1.7421490599 -1.4002084321
H 4.5041815944 -0.8795224468 -1.9708622140
H -4.7201607866 0.2755407321 -1.1464468706
H -3.3154665609 0.9597738167 -3.0956848309
H -1.0715761243 1.9992715163 -2.7056398064
H -0.9502331591 2.4736135179 1.9755468259
