35
CONF23
C 0.5016189400 2.6625877473 0.2578286052
C 1.0293782573 1.7495585534 1.3413609361
O -0.0662938985 1.2965660666 2.1330713513
C 0.2341876265 0.1863901957 2.9737395080
C 0.3831728637 -1.1302584890 2.2324292560
O 1.7286235561 -1.2441014039 1.7459869584
C 1.9302282127 -2.2911106622 0.8055524091
C 1.6300905630 -1.8761465058 -0.6226532522
O 0.2262448847 -1.7950829844 -0.8007350666
C -0.1467937069 -1.1983738201 -2.0350958847
C -1.6606770548 -1.1654028956 -2.0961526190
O -2.2406623638 -0.2959683943 -1.1354825936
C -2.3289986500 1.0766137030 -1.5157231747
C -1.6561909239 1.9766593206 -0.5053409831
O -0.2471111253 1.9536903992 -0.7279824969
H -0.1026052873 3.4713448603 0.6966901971
H 1.3571877456 3.1184701639 -0.2571498482
H 1.5522246846 0.9049204112 0.8788361176
H 1.7525538518 2.3004886809 1.9706808126
H -0.6174613416 0.1073907909 3.6580638006
H 1.1408518909 0.3799245397 3.5709292482
H -0.3396267585 -1.1669833122 1.4079388464
H 0.1785720876 -1.9643390229 2.9262660734
H 1.3328589477 -3.1789342854 1.0678432915
H 2.9911469112 -2.5615191302 0.8714102163
H 2.0657701941 -2.6172873160 -1.3189249067
H 2.1047710947 -0.9009770928 -0.8239417870
H 0.2364387787 -1.7950907904 -2.8834107455
H 0.2639345300 -0.1784052861 -2.1057751373
H -1.9778640246 -0.8977170664 -3.1168680757
H -2.0455623605 -2.1669184341 -1.8724928256
H -3.3941973866 1.3485426977 -1.5719828936
H -1.8819460166 1.2480711615 -2.5057395528
H -2.0357986386 3.0055646789 -0.6371780669
H -1.8980655809 1.6378323280 0.5100967759
