39
CONF6
C -3.2754783815 1.1709677361 3.2197237225
O -3.4530627293 0.2534905163 2.1315387607
C -2.5583494743 0.3154799870 1.1082316039
C -1.4876017188 1.2155938743 1.0439976635
C -0.6215446523 1.1845170475 -0.0488494676
C -0.8109311122 0.2609494705 -1.0769836611
C -1.8809847038 -0.6341839029 -1.0169098070
C -2.7645932446 -0.6070046005 0.0735713437
O -3.8391203146 -1.4638512760 0.1138901127
C -3.5327903303 -2.7172953919 0.7601717771
O -2.1551505096 -1.5718848830 -1.9639242062
C -1.2751497467 -1.6403505518 -3.0948432113
C 0.5368349613 2.1646858877 -0.1256937169
C 1.8432068979 1.5322445714 -0.5140306554
C 2.5099081023 1.8536474287 -1.6793803427
N 3.6821765545 1.3223154257 -2.0652076847
C 4.1973902936 0.4146712580 -1.2154668467
N 3.6539920699 0.0062495962 -0.0556589477
C 2.4825599005 0.5575756956 0.2943284530
N 1.9512440579 0.1786392067 1.4884704610
N 5.3677466698 -0.1907653372 -1.5896563424
H -2.3075100467 1.0167627261 3.7104961105
H -3.3560163374 2.2087824477 2.8765738528
H -4.0813771822 0.9528398725 3.9208805608
H -1.3198736867 1.9365083794 1.8357903684
H -0.1168193775 0.2458362116 -1.9085922807
H -3.2328295478 -2.5488518331 1.8010663633
H -4.4471243682 -3.3131775940 0.7315774379
H -2.7327216034 -3.2407024680 0.2238543259
H -1.6650727526 -2.4426385789 -3.7216251805
H -1.2810226807 -0.6979755413 -3.6543728312
H -0.2518683345 -1.8791847747 -2.7827090467
H 0.6326283906 2.6720639665 0.8430000349
H 0.3007568285 2.9431751313 -0.8618412643
H 2.0745998291 2.5940105328 -2.3518972360
H 2.3478662840 -0.6391805322 1.9265190420
H 0.9677015378 0.3352231936 1.6513450163
H 5.9105061819 0.2789015680 -2.2972346568
H 5.8915902665 -0.6541997924 -0.8640007658
