37
CONF206
C 0.4693633246 -2.3904903554 -2.9992841095
C -1.0349323984 -2.2340265078 -2.9721731574
O -1.5278197136 -1.9206916250 -1.6283804101
P -1.2705930951 -0.4803549801 -0.9992209762
O -1.1741818863 0.6614001349 -1.9295624708
O -2.4137334579 -0.3146067586 0.0862285273
C -2.6853249202 -1.3565232675 1.0882994943
C -3.3745077757 -0.6910729708 2.2524451141
O 0.0920609147 -0.7563668696 -0.1433635270
P 0.7572092769 0.1484343461 1.0488839467
O 0.0966269611 -0.0472840647 2.3543748003
O 2.2618925705 -0.3338137705 0.9985153722
C 3.0801225673 -0.1629333144 -0.2086356082
C 4.1050508822 0.9210655068 0.0253399879
O 0.8094325048 1.6304895494 0.4690920302
C -0.2778947428 2.5798607060 0.7488437756
C 0.1021476535 3.4592777247 1.9158067617
H 0.7747947581 -2.7277412766 -3.9949395034
H 0.7977504798 -3.1302435222 -2.2639715138
H 0.9706222876 -1.4396551630 -2.7953774150
H -1.3731488856 -1.4480652696 -3.6544868359
H -1.5400915147 -3.1689315395 -3.2234278563
H -1.7388497447 -1.8099584744 1.3975179296
H -3.3152760079 -2.1110340126 0.6072670261
H -3.6235267156 -1.4480250986 3.0025098087
H -2.7118279958 0.0467745427 2.7112992486
H -4.2984253254 -0.2024481824 1.9311353805
H 2.4332948700 0.0680946773 -1.0612881201
H 3.5464815395 -1.1371424191 -0.3772569529
H 3.6170103736 1.8842242724 0.1941452991
H 4.7300011830 0.6816252707 0.8897528361
H 4.7487050639 1.0058064287 -0.8561465375
H -0.3975905449 3.1428616394 -0.1789215381
H -1.2035906951 2.0290602211 0.9433799662
H 1.0346254133 3.9929538346 1.7116085748
H -0.6891001480 4.1966492487 2.0859787347
H 0.2232237582 2.8628310107 2.8240123249
