44
CONF36
C -3.5838474277 2.5459134453 2.8442556458
C -3.1132689452 1.2093412296 2.3279151121
C -4.1898964586 0.1527772274 2.1596358307
O -3.6597647097 -0.6936965473 1.1221944234
C -2.7273308521 0.0811980419 0.3582942526
O -2.6675270338 1.3565968862 0.9578098322
C -3.2246781219 0.2766522480 -1.0893526693
N -4.5823155968 0.7830626861 -1.1230496017
C -5.7291008206 0.0821468400 -1.0098685750
N -6.7706699499 0.9043758857 -0.9849446182
C -6.1830161860 2.1311716984 -1.0823027493
N -4.8592125988 2.1109498571 -1.1652425733
C -1.3600146703 -0.6044800220 0.3586617102
C -1.1508333651 -1.9492854913 0.0322325278
C 0.1146420786 -2.5207392366 0.0273918032
C 1.2127530373 -1.7349135706 0.3602271009
C 1.0511729502 -0.3929551169 0.6907935026
C -0.2265090130 0.1485624087 0.6764856339
O 2.4273948533 -2.3811544986 0.4026161300
C 3.5811506124 -1.6655593782 0.1248312812
C 4.6664848354 -1.8576047606 0.9711820987
C 5.8749090572 -1.2271874946 0.6917820389
C 5.9656079077 -0.4100951369 -0.4281714818
C 4.8834672423 -0.2163259408 -1.2801768375
C 3.6805415656 -0.8552813360 -1.0030337590
Cl 7.4889548079 0.3979815957 -0.7806191997
Cl -2.4791336982 -3.0183058517 -0.4131056233
H -3.9588237711 2.4329605829 3.8658913417
H -2.7611603948 3.2654405214 2.8585274503
H -4.3886649779 2.9337640916 2.2124525087
H -2.2834915574 0.8153580010 2.9340978725
H -4.3483747798 -0.4576662071 3.0518618225
H -5.1377315354 0.6068799971 1.8358886746
H -2.5688423617 0.9884426120 -1.5959130957
H -3.1973960496 -0.6764816859 -1.6205148553
H -5.7503966250 -0.9982583921 -0.9560784486
H -6.7395124000 3.0599205095 -1.1000532477
H 0.2558573293 -3.5639117521 -0.2295676602
H 1.9040530132 0.2201084128 0.9582520081
H -0.3621292529 1.1924777573 0.9340778357
H 4.5643420127 -2.4984019322 1.8402291488
H 6.7295635393 -1.3680536171 1.3433661296
H 4.9771619181 0.4164466056 -2.1553096098
H 2.8289322397 -0.7249321294 -1.6622640627
