47
CONF43
C 4.1993066884 -2.1667200248 1.8878598529
C 4.1677224026 -1.2503528789 0.7321023760
C 3.1765426775 -0.5281834030 0.1179803306
C 3.8478151912 0.1481194904 -0.9464252889
N 5.1308247415 -0.1304570190 -0.9672106682
O 5.3296850563 -1.0353666155 0.0883365895
C 3.2889619242 1.1110986086 -1.9093310393
C 2.7296636947 2.3026539367 -1.4415061959
C 2.1691021562 3.2594829718 -2.2639363720
C 2.1597169992 3.0173158674 -3.6339515490
C 2.6930835160 1.8443192304 -4.1573553207
C 3.2467754355 0.9057453462 -3.2944435564
Cl 3.8604720521 -0.5886670362 -3.9679552696
F 2.7459298095 2.5173559904 -0.1090253397
C 1.7684311146 -0.4708141652 0.5455576403
O 1.4335640917 -0.6340218296 1.7205071210
N 0.8576487390 -0.2145812717 -0.4345190530
C -0.5286451213 -0.0357878719 -0.1415230356
C -1.3881966636 -1.1736802949 0.5140639474
N -1.7152731405 -0.2383806647 1.5955817872
C -0.9505950590 0.8041488665 1.0890019467
O -0.7693061210 1.9356071797 1.4714829381
C -3.0680302199 -0.2159899272 2.0986425184
C -3.9988265707 -0.5009857963 0.8606063334
S -3.0015686405 -1.6714952097 -0.2204852732
C -4.2517395931 0.8138517420 0.1217697220
C -5.3181922305 -1.1732497370 1.2246079375
C -3.2929441692 -1.1905334450 3.2448402317
O -4.0863044869 -0.9907826540 4.1378978611
O -2.5379352217 -2.2956132929 3.1400797386
H 4.5558633330 -1.6346147055 2.7770636454
H 3.1949996562 -2.5372763650 2.0932699325
H 4.8791127646 -2.9997213183 1.6920751445
H 1.7557486658 4.1651087262 -1.8354667101
H 1.7269366116 3.7510625246 -4.3051950960
H 2.6743688076 1.6538639944 -5.2235741461
H 1.1512715017 -0.1894540711 -1.3996536261
H -1.0336987955 0.3572356671 -1.0285607878
H -0.8265283880 -2.0575310684 0.8236601304
H -3.2957098870 0.7813452047 2.4869816522
H -4.7809968890 0.6209808381 -0.8146883320
H -3.3199030877 1.3355437112 -0.1141149822
H -4.8692747473 1.4713594947 0.7445112688
H -5.9112061597 -1.3391599311 0.3210365971
H -5.1672332400 -2.1360188034 1.7195902673
H -5.8900696658 -0.5182877490 1.8900044058
H -2.7413700248 -2.8784727602 3.8926089110
