32
CONF1
C 4.7435839436 -0.2042730732 0.0747399182
C 4.3414731356 1.1069786562 0.4042798770
C 3.0063428262 1.4394452820 0.4540472510
C 1.9986597699 0.4837846286 0.1784183192
C 0.5935098688 0.7883875926 0.2193991918
C -0.3488321806 -0.2302644501 -0.0697957461
C 0.0919828048 -1.5580142142 -0.4018120090
C 1.4465281835 -1.8356097982 -0.4376683161
C 2.4116865313 -0.8475110577 -0.1555105259
C 3.7956504698 -1.1587683513 -0.1987499057
C -0.8896001068 -2.5656982514 -0.6887091866
C -2.2172872328 -2.2900873718 -0.6526993026
C -2.6937662188 -0.9763402103 -0.3250323927
C -1.7445247728 0.0482933410 -0.0345747932
C -2.2045327990 1.3556005707 0.2916036657
C -3.5874770678 1.6143929976 0.3223549676
C -4.4984204311 0.6094738714 0.0383205901
C -4.0581776376 -0.6755874066 -0.2828142317
C -1.2372792288 2.3599520464 0.5770293497
C 0.0996884751 2.0872950473 0.5421639625
H 5.7995233207 -0.4527800937 0.0388669089
H 5.0919347805 1.8607848520 0.6205674937
H 2.7353565532 2.4563165897 0.7112997841
H 1.7811700282 -2.8390947565 -0.6885807690
H 4.0883255133 -2.1734259971 -0.4540902550
H -0.5369103427 -3.5627314975 -0.9374049316
H -2.9499532816 -3.0617056399 -0.8718988574
H -3.9301978208 2.6143858686 0.5721737468
H -5.5627433025 0.8210934833 0.0653824324
H -4.7778881803 -1.4585501289 -0.5042166831
H -1.5844397113 3.3587699370 0.8260262745
H 0.7966142107 2.8854875339 0.7668843725
