22
CONF411
C 1.9774203710 -1.3041511305 0.1462801300
C 1.1652236361 -0.0379484982 -0.0823887888
C -0.3085917032 -0.3738289611 -0.3269087200
C -1.1994746971 0.8759702212 -0.4097859886
C -1.4770152419 1.5275850590 0.9422009363
O -2.3534264143 0.7171886834 1.7414850673
O -2.4448875407 0.5241768686 -1.0368526388
O -0.3653753799 -1.0892659213 -1.5680560234
O 1.6953413109 0.7415648090 -1.1578003514
O 3.2931290580 -0.9192472704 0.5638446428
H 2.0172885314 -1.8912922824 -0.7818921439
H 1.4833834935 -1.9084916228 0.9223964724
H 1.2509949899 0.5865180308 0.8149446070
H -0.6650943864 -1.0236767818 0.4903099802
H -0.7203100524 1.6074785110 -1.0704939928
H -0.5441833015 1.7491268806 1.4746709435
H -2.0075800199 2.4691759782 0.7724658123
H -1.8287748902 0.0320098053 2.1733235380
H -2.9908217013 0.1241495084 -0.3412570745
H -1.2678870304 -0.9619895779 -1.9010806158
H 1.4585152629 0.2727800437 -1.9717587598
H 3.8321265047 -1.7178321571 0.6063529681
