16
CONF2
C -0.2651637330 -3.7022098003 1.3859898491
O -0.3869802734 -3.0349950787 0.0989502017
C -0.2828609434 -1.6860925360 0.1635146836
C -1.4254877008 -0.8923462081 0.3208892958
C -1.3318607424 0.5015296858 0.3418858800
C -0.0790929309 1.1153751517 0.2042792472
C 1.0699469324 0.3312036576 0.0308568561
C 0.9612089493 -1.0616031234 0.0131220204
Br 2.4689186156 -2.1801934642 -0.2464983586
Br 2.7670744149 1.1463676409 -0.1780018323
Br 0.0593853346 3.0053631247 0.2388088475
Br -2.8964920838 1.5470530140 0.5571792062
Br -3.0902679188 -1.7865438077 0.4666700166
H -0.3688226178 -4.7666627305 1.1762124564
H 0.7156571785 -3.4971844982 1.8251072233
H -1.0610449187 -3.3702909777 2.0593520122
