45
CONF3
C -1.7642660270 -0.2911903918 -0.3002342805
C -1.9612296041 0.6799463181 -1.4681234185
C -2.3928624899 2.0594649813 -0.9656810526
C -1.3889778117 2.6056542516 0.0531758356
C -1.1874670894 1.6163909136 1.2021019233
C -0.7283010597 0.2295961186 0.7201782831
C -0.7135630445 -0.7558896671 1.9143428017
C -0.4321664925 -2.1924796939 1.4626349486
N -1.3198584656 -2.6662946850 0.3851572269
C -2.6563113642 -3.0002328768 0.8842708680
C -1.3657285292 -1.7063189876 -0.7415773122
C -0.0248243314 -1.6573320426 -1.4831215740
C 0.9883359801 -0.6872207427 -0.9177946628
C 0.6626592567 0.2385770892 0.0911180781
C 1.6557014439 1.0958951462 0.5651928674
C 2.9522552401 1.0679738935 0.0496102358
O 3.8285717487 1.9649184156 0.6002334888
C 5.1709900323 1.9618410205 0.1012724477
C 3.2788449890 0.1632071180 -0.9618485599
C 2.2879345739 -0.6987463223 -1.4243385922
H -2.7256945194 -0.3522178338 0.2303073987
H -2.7095629774 0.2702382570 -2.1593093028
H -1.0271389800 0.7850909709 -2.0355535382
H -2.4979656641 2.7542167934 -1.8075315122
H -3.3811915835 1.9797730902 -0.4910186405
H -1.7341351052 3.5683569465 0.4485430352
H -0.4287685159 2.7924142468 -0.4462007829
H -2.1467835029 1.4745568909 1.7191628200
H -0.4962057651 2.0178811018 1.9515859729
H 0.0450956775 -0.4411199060 2.6426056109
H -1.6890585969 -0.6996071351 2.4147170090
H -0.5281887552 -2.8803665115 2.3107302910
H 0.6051219343 -2.2647891979 1.1107726603
H -3.2036027460 -2.1634375790 1.3509823848
H -2.5695562862 -3.7964651488 1.6320265013
H -3.2674101990 -3.3767952825 0.0563353513
H -2.1234194033 -2.0887809704 -1.4386982536
H 0.4037509483 -2.6665043199 -1.5113013752
H -0.2195481179 -1.3830224966 -2.5281417092
H 1.4428385466 1.8110501592 1.3522846144
H 5.6984817388 2.7339082108 0.6624918911
H 5.1958602903 2.2036419040 -0.9681157479
H 5.6531657407 0.9912740288 0.2695321743
H 4.2742419676 0.1150264605 -1.3859201996
H 2.5399356166 -1.4120822286 -2.2059956234
