43
CONF37
C -3.5051517749 -0.6238462955 2.1976400740
Si -1.7260137913 -0.1177350723 1.9829783826
C -1.0471176238 0.8175855285 3.4460970658
O -0.8784176809 -1.5212825852 1.7331555429
O -1.5811926187 0.8919154989 0.6792023478
Si -1.6567358012 0.8209891196 -0.9670376795
C -2.1332158511 2.5131768631 -1.5733998361
C -2.8634356696 -0.4949658515 -1.5074624253
O -0.1526029995 0.5031257691 -1.5617738105
Si 0.9618669007 -0.6614085176 -1.8904998850
C 0.1526538943 -2.2468271318 -2.4338178959
C 2.1206533131 0.0350512410 -3.1704866244
O 1.8223862093 -1.0107332696 -0.5245241664
Si 2.5662705086 -0.2770314724 0.7414034012
C 4.3940611455 -0.6105954139 0.6634908019
C 2.1720558457 1.5403226476 0.8272649231
O 1.8954339354 -1.0781330021 2.0552058792
H -3.6319887263 -1.2170997332 3.1097306935
H -3.8455003043 -1.2276271986 1.3495489847
H -4.1537460667 0.2556283677 2.2707129028
H 0.0057371257 1.0756434228 3.2840242384
H -1.6016966834 1.7485709151 3.6069332554
H -1.1144749022 0.2174473489 4.3597563863
H 0.0904248621 -1.4358613017 1.8305824524
H -3.1187020441 2.8014673753 -1.1923076393
H -1.4055154953 3.2604383428 -1.2378081579
H -2.1691595173 2.5402852899 -2.6677505956
H -2.8702731442 -0.5879529771 -2.5990121882
H -3.8773457663 -0.2386277527 -1.1807831871
H -2.6074791902 -1.4723389834 -1.0847673164
H -0.4590828442 -2.6705101367 -1.6302643888
H -0.4898120715 -2.0852059478 -3.3057504544
H 0.9155243918 -2.9850777833 -2.7049876903
H 1.5901032171 0.2609076083 -4.1017582933
H 2.5803121408 0.9615798411 -2.8078732057
H 2.9221364743 -0.6761740247 -3.3972567030
H 4.5896266784 -1.6869608987 0.6090158499
H 4.8347029508 -0.1363174611 -0.2206571026
H 4.9030953091 -0.2137945995 1.5488836753
H 2.6207160115 1.9913313186 1.7197177178
H 2.5650029549 2.0661147688 -0.0503712890
H 1.0889797932 1.6964949042 0.8658791638
H 2.0969167937 -0.7219685227 2.9291263093
