53
CONF219
C 2.7351749396 3.2049863436 -1.9832471648
C 2.3752153295 1.7501381584 -1.6609683132
C 2.9946575873 0.8454471150 -2.7429705104
C 0.8507529271 1.5780365561 -1.7252752935
O 0.2356434295 2.4437769635 -0.7706123908
C -1.1255906634 2.0888765361 -0.5060893603
C -1.2342555957 0.8149496869 0.2991603796
C -1.9167095657 -0.2889298204 -0.2069658121
C -1.9830687191 -1.4613807378 0.5447648976
C -1.3693322947 -1.5534350487 1.7879135985
C -0.6804815164 -0.4479910179 2.2835874509
C -0.6147044953 0.7304421155 1.5502400390
O -2.5798210064 -2.6091164385 0.0494845036
C -3.7863112663 -2.5056105916 -0.6206359544
C -3.9910294077 -3.3844431903 -1.6804288127
C -5.2156380530 -3.3782614975 -2.3423418216
C -6.2235015285 -2.4974533849 -1.9549726892
C -6.0026301731 -1.6249983251 -0.8904844780
C -4.7865492767 -1.6246030742 -0.2132486270
C 2.8498405279 1.3133553132 -0.2741101368
C 2.6705253206 -0.0150431015 0.1339168272
C 3.0488295467 -0.4507643719 1.3980257056
C 3.6086479164 0.4700122386 2.2697139100
C 3.8239343307 1.7862537476 1.9048538759
C 3.4395992374 2.1992382481 0.6312046469
O 4.0628209335 0.0694661935 3.5500488654
C 3.1550441955 -0.2207698162 4.4944586186
F 3.8187789918 -0.5324565441 5.6135408302
F 2.3632865764 -1.2717510034 4.1756630008
Br 1.9176283683 1.3065215120 4.9157080134
H 2.2843197199 3.9058685270 -1.2768376952
H 2.3657776400 3.4505511757 -2.9838889335
H 3.8204214056 3.3491778683 -1.9779885732
H 2.7081014881 -0.2024834199 -2.6181191145
H 4.0863027151 0.9097073908 -2.7036858528
H 2.6663748120 1.1709807963 -3.7354969344
H 0.4918204993 1.8258852844 -2.7381338594
H 0.5864361380 0.5313907403 -1.5161094282
H -1.6893743615 1.9940009844 -1.4461932077
H -1.5393989926 2.9294188302 0.0609809526
H -2.3867974103 -0.2423395104 -1.1849452032
H -1.4330740696 -2.4797510510 2.3490334319
H -0.1980855156 -0.5102213266 3.2538330319
H -0.0678962793 1.5853540133 1.9374587643
H -3.1949112157 -4.0617368812 -1.9716034972
H -5.3776648918 -4.0629069367 -3.1690721543
H -7.1750624395 -2.4923941626 -2.4761172419
H -6.7852650823 -0.9419720023 -0.5749798200
H -4.6159007184 -0.9531583039 0.6215595505
H 2.2195650469 -0.7368465797 -0.5388725121
H 2.9116813359 -1.4840747478 1.6938092462
H 4.2777204557 2.4769532347 2.6070025674
H 3.6041528223 3.2343474096 0.3584333829
