78
CONF509
C -1.4792758853 0.6622287991 -1.4132700616
C -1.3886655226 1.8401359364 -2.3781556916
O -2.0306114976 1.3575000861 -3.5947533509
C -2.0456798671 -0.0086510128 -3.6272834853
O -2.4652017691 -0.6180684714 -4.5749542423
C -1.4001057903 -0.5243292475 -2.3583318129
C -1.9101936137 -1.8009019084 -1.6859097752
C -3.4238812519 -1.8068862975 -1.4913994087
C -4.2373640563 -2.1543272643 -2.5701638132
C -5.6196045256 -2.1012869658 -2.4306129278
O -6.5234860859 -2.3954326271 -3.4190347140
C -6.0000115205 -2.6411049129 -4.7252636774
C -6.2128589574 -1.7293165194 -1.2194486397
O -7.5657236287 -1.6857765933 -1.0772786675
C -5.3933867627 -1.4016784667 -0.1347916843
O -6.0500151042 -1.0622274560 1.0108515969
C -5.2522841001 -0.7292513978 2.1394789617
C -4.0046729187 -1.4367547457 -0.2769340499
C -1.1788357337 -1.9524779451 -0.3577253906
C -1.2391943838 -3.2186206641 0.2561166903
C -0.6924441106 -3.3567868076 1.5068625435
C -0.1203632168 -2.2820285449 2.1793545104
O 0.2815601591 -2.6769194243 3.4315309610
C 0.1657224435 -4.1104152627 3.4216948617
O -0.6700225969 -4.4690989087 2.3075531522
C -0.0591894913 -1.0341499900 1.6149151084
C -0.5793006895 -0.8717872988 0.3105183997
C -0.4390873417 0.4994011499 -0.3250756189
O 0.8499526717 0.6840965273 -0.9848361268
C 1.9880997806 0.4635604430 -0.2193666687
O 2.0140563500 1.4194697169 0.8489747667
C 3.1722771906 1.2108096786 1.6497316789
C 3.1727309397 2.1764014848 2.8204056242
O 4.4016273693 2.0044541030 3.5443235241
C 5.5641429452 2.1700979520 2.7533738548
O 5.5819166723 1.3171428274 1.6124840172
C 4.4079652342 1.4886468160 0.8050152121
C 4.4934362025 0.5394501176 -0.3757901493
O 5.5594565635 0.8864387020 -1.2466604818
C 3.1901627915 0.6233570366 -1.1611305663
O 3.1911079836 -0.4207178165 -2.1221495801
C 5.7809558275 3.6153191598 2.3805351059
C 5.3511243443 4.7325467071 3.0453249798
C 5.8284525413 5.9405791041 2.4718648159
C 6.6279553895 5.7299058601 1.3831854438
S 6.8030895286 4.0425448045 1.0390012409
H -2.4692974760 0.6612475487 -0.9388882885
H -0.3533155122 2.1044177153 -2.6139494087
H -1.9361188933 2.7275826248 -2.0542941303
H -0.3428087390 -0.6830611509 -2.6240606982
H -1.6546291469 -2.6551579300 -2.3244980845
H -3.7834513767 -2.4251220611 -3.5138671967
H -6.8669341169 -2.7609369952 -5.3761357880
H -5.4015487464 -3.5604123344 -4.7416962987
H -5.3880155807 -1.7981818382 -5.0678048467
H -7.9438136940 -1.9310620102 -1.9332704944
H -4.6142662960 -1.5703076369 2.4429910146
H -4.6239836020 0.1501602643 1.9420332154
H -5.9549629030 -0.4986841086 2.9414677606
H -3.3676092352 -1.2009047889 0.5657221987
H -1.7352406595 -4.0474189771 -0.2373760469
H -0.3056542379 -4.4430425891 4.3500429407
H 1.1632944416 -4.5543747776 3.2838794345
H 0.3737614898 -0.1909925342 2.1433934293
H -0.5292127230 1.2739566936 0.4465160078
H 1.9936505673 -0.5548146316 0.2110955533
H 3.2072782179 0.1735324236 2.0268315529
H 2.3708326258 1.9602428863 3.5308869105
H 3.0635223993 3.2057923021 2.4499681249
H 6.3835402694 1.8066962351 3.3830941665
H 4.3521384581 2.5237542852 0.4305543841
H 4.6122214605 -0.4924633765 -0.0016852892
H 6.3685952380 0.8796042190 -0.7206696253
H 3.1283683262 1.6144742525 -1.6388462878
H 2.3911525904 -0.3203235154 -2.6511664949
H 4.7158419768 4.6773437362 3.9209855627
H 5.5878781199 6.9267008367 2.8499358019
H 7.1144544576 6.4641367943 0.7560343335
