47
CONF151
C -6.4124044775 -1.8175259284 3.0220770951
O -6.5216614367 -0.4083278534 2.6712466734
P -5.9888634261 0.1109067723 1.2575200817
S -6.4490982431 -0.9355746184 -0.3138898287
O -6.4470153683 1.6407734288 1.2861165541
C -7.8120424675 2.0008973403 0.9245883781
O -4.4038963330 0.2632794569 1.5678528443
C -3.4655138770 0.4154103690 0.5427331507
C -2.5919387532 -0.6375594713 0.2999548669
C -1.6194749952 -0.4975059403 -0.6809665155
C -1.5151105868 0.7001171419 -1.3945545403
C -2.3962432265 1.7507032209 -1.1319718853
C -3.3852589076 1.6073942498 -0.1629007633
S -0.3240371712 0.9006272088 -2.7141353776
C 1.1786636434 0.2488245118 -1.9945223111
C 1.5364716886 0.5144168328 -0.6697328628
C 2.7357570023 0.0306321103 -0.1628983961
C 3.5811846388 -0.6897274216 -0.9990471358
C 3.2506546085 -0.9485324546 -2.3204409184
C 2.0352608849 -0.4871972889 -2.8163393396
O 4.7727573564 -1.2261881111 -0.5003020804
P 6.0503904133 -0.2879601120 -0.1564669123
S 6.3784479406 1.1830806367 -1.3833284550
O 7.1970206801 -1.3894830570 -0.0017902969
C 7.8584400417 -1.9281128084 -1.1821495036
O 5.7503563793 0.0770683095 1.3694645020
C 6.5918930458 1.0382811308 2.0703135424
H -6.9716302750 -2.4244668201 2.3059420849
H -6.8478766996 -1.9049768207 4.0168218775
H -5.3615572881 -2.1189442424 3.0414956599
H -7.8581906753 3.0860543853 1.0083403602
H -8.0201384142 1.6884892571 -0.1016063890
H -8.5186431622 1.5374536639 1.6179476868
H -2.6878240284 -1.5586631941 0.8648056185
H -0.9431685525 -1.3199424355 -0.8889740021
H -2.3078881307 2.6855435157 -1.6755241471
H -4.0703369334 2.4195694615 0.0543945503
H 0.8782072888 1.0913352835 -0.0288877246
H 3.0172259604 0.2185903845 0.8675870044
H 3.9291840794 -1.5184201105 -2.9459951546
H 1.7561280921 -0.7033229283 -3.8424482264
H 8.5899733565 -2.6424222069 -0.8061855196
H 7.1304511603 -2.4340121083 -1.8221993474
H 8.3565382245 -1.1245043940 -1.7299061237
H 6.5577727215 2.0042564989 1.5606506653
H 6.1678465824 1.1208846072 3.0703510759
H 7.6191865442 0.6687807702 2.1240054918
