43
CONF12
C -0.9533003476 0.1091604216 2.4629355964
C -1.0112570175 1.3582868905 1.5859086447
C -0.8413738764 2.6273641294 2.4211281063
C 0.0611476972 1.3431966121 0.4718675418
C 0.0185746511 0.1399848691 -0.4298458850
C 1.1111179907 -0.7379992613 -0.5372804183
C 1.0071002658 -1.8322001755 -1.4048591583
N -0.0612851773 -2.0759549630 -2.1509419840
C -1.1003568361 -1.2506977369 -2.0564067866
C -1.1133310969 -0.1370092073 -1.2149500074
C -2.2724922911 0.8151871713 -1.2220938121
O -2.1879629598 1.9675114607 -1.5819095639
O -3.3885156840 0.2235772091 -0.7801740863
C -4.5781872161 1.0526447978 -0.8117584502
C -2.2393671396 -1.6244642855 -2.9808714224
F -2.8314535393 -0.5011257568 -3.5070421467
F -3.2120855468 -2.3100634659 -2.2949304830
C 2.1575738227 -2.8080801929 -1.6321581422
F 1.7220304305 -3.9830233792 -2.1126993478
F 3.0410498782 -2.3048750993 -2.5262137724
F 2.8403230578 -3.0703929579 -0.4951318595
C 2.3779404521 -0.4591781508 0.1862705507
N 3.3626325566 0.1067714330 -0.3804854768
C 4.4704306424 0.3385852989 0.5499184798
C 4.3561462854 -0.6197974064 1.7467402036
S 2.5483685477 -0.9299826466 1.9143384446
H -1.7567608562 0.1282999922 3.2058658267
H -1.0640045659 -0.8077439436 1.8737864476
H 0.0007923532 0.0568667634 2.9978260893
H -2.0017121705 1.3994263893 1.1167449993
H 0.1380726698 2.6332383384 2.9138148240
H -1.6095169967 2.6836138116 3.1986407708
H -0.9162626664 3.5257149892 1.7998836230
H 1.0474503003 1.4145861419 0.9386143493
H -0.0686327524 2.2371485342 -0.1486438989
H -4.7797446652 1.3700141845 -1.8373980540
H -5.3788551561 0.4181944184 -0.4353652965
H -4.4396991144 1.9286028178 -0.1730256561
H -1.8869024090 -2.2553891957 -3.8027409168
H 5.4249187821 0.2039170002 0.0316697525
H 4.4128240124 1.3869960284 0.8765487203
H 4.7431745823 -0.1850963090 2.6704163711
H 4.8513911192 -1.5758160616 1.5540076008
