33
CONF7
C -5.1349877287 -1.1214540790 -0.2759755779
C -3.8793071212 -0.3240986086 -0.6039911506
C -4.2628652779 1.1347436943 -0.8327529274
O -4.6739459866 1.5434022966 -1.8971481565
O -4.1533903102 1.8843544059 0.2743069184
O -2.9791737433 -0.5015404214 0.4899584553
C -1.6979514197 -0.0356269094 0.3593655384
C -0.8746999463 -0.2409779584 1.4723537160
C 0.4433328270 0.1854514533 1.4512735014
C 0.9359444170 0.8149846855 0.3119864580
C 0.1323985614 1.0272981704 -0.7941141861
C -1.1972068950 0.6043038892 -0.7755712145
O 2.2415438453 1.3119221426 0.2993170972
C 3.2685697764 0.4165134318 0.2129522176
C 4.5623118324 0.8951229625 0.4572270806
C 5.6686236194 0.0627979005 0.3634901114
C 5.4697593004 -1.2700536287 0.0240091929
C 4.2006665142 -1.7733393340 -0.2255598588
C 3.1036408358 -0.9244924641 -0.1311556760
Cl 6.8643692782 -2.3342120906 -0.0892519908
Cl 4.7919346595 2.5754853503 0.8832103667
H -5.8579549097 -1.0246636600 -1.0892066262
H -5.5844805822 -0.7569429914 0.6515846429
H -4.8712382000 -2.1750457558 -0.1592359394
H -3.4321971645 -0.6933926455 -1.5352144751
H -4.4487179532 2.7864117257 0.0598070219
H -1.2852659966 -0.7326319465 2.3479274768
H 1.0891472088 0.0328947858 2.3100593668
H 0.5391263608 1.5232520010 -1.6690568887
H -1.8090357270 0.7795813302 -1.6524492908
H 6.6612955773 0.4511140544 0.5566760965
H 4.0607234691 -2.8136624522 -0.4947664599
H 2.1090308790 -1.3074991230 -0.3293335324
