47
CONF13
C 4.2384763696 -2.9773701261 0.7947613572
C 4.1719662995 -1.6547033432 0.1443501134
C 3.1752189564 -0.7283090431 -0.0298999627
C 3.8078939290 0.3295285555 -0.7532653761
N 5.0708696487 0.0646864238 -0.9969834957
O 5.3053205447 -1.1906214075 -0.4134136142
C 3.2312888028 1.5930415085 -1.2425844556
C 3.6821833050 2.8198385690 -0.7503669939
C 3.1670131597 4.0374429358 -1.1565998328
C 2.1501386181 4.0377736672 -2.1042708204
C 1.6628199102 2.8456454234 -2.6322454046
C 2.2068281226 1.6449464553 -2.1985271462
Cl 1.6023920837 0.1501068368 -2.8803329940
F 4.6519541136 2.8102940983 0.1855021760
C 1.7803569145 -0.8836841231 0.4156753218
O 1.2631477630 -1.9921203263 0.5713989874
N 1.0923973325 0.2685840170 0.6449930454
C -0.2982349463 0.2560468270 0.9692363339
C -1.3483974556 -0.3405316923 -0.0306666618
N -1.7867113993 -1.2442315746 1.0383260794
C -0.8635205787 -0.7833631574 1.9705300468
O -0.6759857227 -1.0693264521 3.1287908118
C -3.2028275836 -1.4732135245 1.2023563836
C -3.9109179778 -0.1141746060 0.8379914121
S -2.8374363780 0.6271106044 -0.5149461705
C -3.9070465299 0.7901680459 2.0706729351
C -5.3281651785 -0.2837510307 0.3023305710
C -3.7143666489 -2.6455577041 0.3789151265
O -4.6382922636 -3.3469436216 0.7272604379
O -3.0462394182 -2.7970745122 -0.7754946496
H 5.2059370420 -3.1084121564 1.2856485171
H 3.4298822538 -3.0748311366 1.5190862931
H 4.1221667940 -3.7685079533 0.0453394016
H 3.5575185449 4.9550815912 -0.7321686891
H 1.7294711703 4.9795191184 -2.4395212561
H 0.8745493386 2.8473118330 -3.3751891453
H 1.5596515394 1.1595751384 0.5692186036
H -0.6000683206 1.2569930352 1.2896976200
H -0.9215336969 -0.8341686571 -0.9069038347
H -3.4140705993 -1.7117784155 2.2494706745
H -4.2781110799 1.7835917347 1.8063766830
H -2.9045118809 0.9020508176 2.4926797489
H -4.5618490026 0.3643853206 2.8397835695
H -5.3561592118 -0.8928721067 -0.6048765139
H -5.9530621080 -0.7570130941 1.0667275416
H -5.7570486067 0.6957278166 0.0731766174
H -3.4348864877 -3.5468910960 -1.2592401909
