65
CONF83
C 5.3257823040 -3.7921610042 5.3546393985
O 5.1327210530 -3.6695652995 3.9400135832
C 4.5789311392 -2.5079457711 3.4793941468
C 4.1861979249 -1.4411632543 4.2921352135
C 3.6321901909 -0.3031794052 3.7061301652
C 3.4559381582 -0.1943632759 2.3263116270
C 3.8611098467 -1.2736755931 1.5334681069
C 4.4151051424 -2.4170323315 2.0935499471
C 2.8264817000 1.0341955423 1.7223592973
C 1.3296137472 1.1670227641 2.0352392376
N 0.5226090402 0.0110229688 1.6296318591
C 0.5003773606 -0.1405399813 0.1683867633
C -0.3069289927 -1.3646364953 -0.2476529911
C -1.7478030940 -1.2979062682 0.2738184338
C -1.7239545596 -1.0209012868 1.7775686841
C -0.8470522406 0.1772886739 2.1332353714
N -2.5401755682 -0.2576190042 -0.4056891336
C -2.8797279568 -0.4089690871 -1.7151972452
N -2.9034207466 -1.5540955488 -2.3831851953
C -3.3648388064 -1.2139130419 -3.6460707462
C -3.5829154507 -2.0176855058 -4.7638021445
C -4.0445134954 -1.4100648669 -5.9323169331
C -4.2842933076 -0.0311751391 -5.9924006264
C -4.0736316679 0.7911010972 -4.8821373002
C -3.6186860519 0.1768836003 -3.7244266122
N -3.3100362137 0.6724455874 -2.4653847800
C -3.3144244844 2.0626385361 -2.0348450683
C -1.9197153341 2.5968685105 -1.7800774530
C -0.8671195849 2.2817123449 -2.6431705499
C 0.4138708099 2.7715962193 -2.4118193758
C 0.6164231196 3.5778500407 -1.3034671232
C -0.3988385313 3.9158259422 -0.4270279129
C -1.6739699342 3.4125324205 -0.6750208727
F 1.8691941769 4.0430405351 -1.0586273250
H 5.7741444721 -4.7741731164 5.5084401043
H 4.3701780460 -3.7361379429 5.8894593606
H 6.0035007120 -3.0156044548 5.7287952590
H 4.3088875175 -1.4790430646 5.3677521377
H 3.3342280123 0.5211135111 4.3497788081
H 3.7436007761 -1.2184968382 0.4542207874
H 4.7283324070 -3.2486257020 1.4697459895
H 3.3104225830 1.9349177248 2.1196674340
H 2.9961690355 1.0443673992 0.6409882217
H 0.9530729593 2.0974049829 1.5629254937
H 1.2093665818 1.2863242148 3.1194783168
H 1.5249994859 -0.2519341741 -0.1978875211
H 0.0886721940 0.7703583888 -0.3136592023
H -0.3069687538 -1.4530809894 -1.3391821060
H 0.1674819220 -2.2663696857 0.1593311520
H -2.2522142537 -2.2505306400 0.0865863073
H -2.7409653333 -0.8588657885 2.1505273376
H -1.3230749517 -1.9111724265 2.2750921115
H -1.2964300940 1.1177189240 1.7464222496
H -0.8055617563 0.2839927271 3.2235218820
H -2.3265229418 0.6911980986 -0.1290318486
H -3.3948811876 -3.0863393626 -4.7217243630
H -4.2198881426 -2.0178683359 -6.8146483753
H -4.6398890616 0.4109582921 -6.9176167253
H -4.2589954825 1.8591768118 -4.9350806917
H -3.8078013064 2.6444477751 -2.8198528266
H -3.9274408704 2.1670335241 -1.1314152310
H -1.0431843289 1.6386082671 -3.5007402150
H 1.2421277902 2.5287688648 -3.0685959541
H -0.1930118696 4.5423307332 0.4338435891
H -2.4828542499 3.6540908448 0.0088389458
