44
CONF142
C 1.9924715617 -1.2587737609 -5.2125460344
C 1.9255410954 -1.0987010683 -3.7317190756
N 1.0520770311 -1.8764416143 -3.0710421864
C 1.0550287015 -1.7134549026 -1.7445930711
N 1.8475256504 -0.8766672438 -1.0635034727
C 2.6626926686 -0.1484496156 -1.8283025815
N 2.7485353109 -0.2101292651 -3.1615380535
O 3.4837079655 0.7252553048 -1.2609352456
C 3.4497931688 0.8451327579 0.1849097479
N 0.1474486087 -2.4882617026 -1.0519774549
C -0.2437435577 -2.4649236915 0.2900398472
O -1.2031585840 -3.1201256698 0.6638769478
N 0.5284836575 -1.6796507235 1.1186936377
S -0.0095010220 -1.1887012139 2.6642208025
O -0.1292193499 -2.3733133123 3.5181955553
O 0.9497476686 -0.1353398600 3.0284729974
C -1.6457894077 -0.4899027583 2.4055693843
C -2.6858314905 -1.1408411014 3.0638659445
C -3.9789154508 -0.6436423207 2.9615767481
C -4.2106877568 0.4919640076 2.1962195671
C -3.1617482332 1.1264854908 1.5356394939
C -1.8466618007 0.6617819802 1.6169220128
C -0.7170482361 1.3509010311 0.8897481657
C -1.1352660096 2.5419215541 0.0310594397
C 0.0390392958 3.1109482781 -0.7176161682
F 1.0322434140 3.5340531391 0.1075074717
F 0.6024192142 2.2057078325 -1.5650130868
F -0.3197028319 4.1779894086 -1.4742439440
H 2.4534467885 -0.3870461744 -5.6772036163
H 2.6043065641 -2.1394370434 -5.4434009269
H 0.9964048346 -1.4349632316 -5.6235810580
H 2.4540246546 1.1483248692 0.5163853604
H 3.7315614842 -0.1034198709 0.6487675390
H 4.1807595215 1.6180575667 0.4169459010
H -0.4249172374 -3.0938782804 -1.6275345265
H 1.2608236470 -1.1042446764 0.6763115225
H -2.4809195254 -2.0286155875 3.6495155669
H -4.7924851563 -1.1448465854 3.4743648544
H -5.2151450927 0.8925648816 2.1054141000
H -3.3826808659 2.0072221809 0.9448245960
H -0.2188633977 0.6217817928 0.2414772827
H 0.0316948618 1.6719199582 1.6203522653
H -1.8764747263 2.2574030194 -0.7224128894
H -1.5510186416 3.3543562103 0.6352304527
