48
CONF7
C 4.1908059210 -1.5809649587 -3.7943641590
C 2.7293074366 -1.3743221080 -3.4067664549
C 2.5576260421 -0.3164618897 -2.3194396859
C 1.0696843922 -0.0351958525 -2.0945216256
O 0.4628733754 0.7471432184 -2.8209059573
N 0.4937730708 -0.7453098891 -1.0907077290
C -0.8638072427 -0.5528258524 -0.6953882577
C -1.1724143498 -0.0019649587 0.7397546985
N -1.8972672563 -1.2513823332 1.0100745026
C -1.6827743168 -1.7876270009 -0.2537954545
O -2.0411797441 -2.8229915458 -0.7630135240
C -3.1292954201 -1.1679112608 1.7601281633
C -3.8232130796 0.1684283331 1.3001300759
S -2.3955294367 1.3502975582 0.9924212305
C -4.5873328917 -0.0875051042 0.0011654811
C -4.7448085632 0.7777087307 2.3515110119
C -2.8337972479 -1.1909460926 3.2516852958
O -1.8229700895 -0.7591693884 3.7576603849
O -3.8490604628 -1.7418180417 3.9383676256
O 3.2052359293 -0.8116290816 -1.1392648306
C 3.4238520908 0.0624533211 -0.1005622181
C 4.1105611715 -0.4731378006 0.9926920132
C 4.3715894766 0.3225925268 2.0999071837
C 3.9526833539 1.6535194674 2.1312358453
C 3.2687124393 2.1762512159 1.0394132794
C 2.9967451169 1.3914664115 -0.0821734490
H 4.2698304149 -2.3227133331 -4.5940793361
H 4.6333405826 -0.6454568325 -4.1522763456
H 4.7792924264 -1.9347717569 -2.9437040646
H 2.1480400618 -1.0434328893 -4.2741698101
H 2.2831735172 -2.3120288640 -3.0539717051
H 1.0886597612 -1.3390216272 -0.5280302063
H -0.2932950745 0.1676480545 1.3668900082
H -3.7751415578 -2.0135336707 1.5040468798
H -4.9755995662 0.8548584100 -0.3933886237
H -5.4307911293 -0.7596977342 0.1969974604
H -3.9537638351 -0.5398946776 -0.7666022824
H -4.2169505911 1.0011741896 3.2823086607
H -5.1771490989 1.7066272788 1.9695566589
H -5.5654462477 0.0850089674 2.5636547143
H -3.6389632519 -1.6972379892 4.8879413664
H 4.4310218741 -1.5093707176 0.9561382015
H 4.9065830263 -0.1007188780 2.9444604246
H 4.1570236005 2.2728249402 2.9981104808
H 2.9333148479 3.2087417876 1.0497051224
H -1.3942649223 0.0077297451 -1.4709685338
H 3.0230927584 0.6242639152 -2.6411254479
H 2.4561964988 1.8278535417 -0.9137811702
