37
CONF9
C 4.6042419782 -2.3969765490 -0.5971959631
C 3.9404742516 -2.9069567540 0.6659447678
C 3.1602374255 -4.1929660987 0.4594696189
O 3.0194929846 -1.8454227186 1.0789396571
C 2.6682037385 -1.8250706919 2.3852550831
O 3.1034164270 -2.5832297225 3.2207528465
C 1.6569026326 -0.7566501275 2.6336072130
C 1.4951257723 -0.1281429258 3.8776320865
C 0.5005540492 0.8243422383 4.0665256012
C -0.3381910084 1.1420651919 3.0144889277
C -0.2263435403 0.5465325989 1.7559116128
C 0.7899692018 -0.3939014373 1.5993000141
C -1.1170743759 0.8925850912 0.6490610466
N -2.4405495797 1.0125270485 0.8291965655
N -2.9625927256 1.3221200698 -0.3605926694
C -2.0069867030 1.4091367356 -1.3289445395
C -0.8006194483 1.1330538437 -0.7036846910
Br 0.8958418461 1.1571143146 -1.5098586449
C -2.2389384249 1.7386259037 -2.7652564399
F -1.8507159024 0.7260975973 -3.5721479113
F -1.5435079351 2.8335228234 -3.1399454386
F -3.5444490507 1.9826403593 -3.0274711815
C -4.4081868850 1.5086602174 -0.4508908440
F -1.2694561531 2.0833994177 3.2236828331
Cl 2.5472458376 -0.4435571314 5.2276678805
H 5.1329117393 -1.4592697004 -0.4083399075
H 5.3249659908 -3.1358721185 -0.9589335085
H 3.8597517870 -2.2268060935 -1.3811511168
H 4.6729381646 -3.0356773935 1.4697530612
H 2.3955834445 -4.0540357882 -0.3116396071
H 2.6819742951 -4.5114473494 1.3884515847
H 3.8385630546 -4.9873081364 0.1333553365
H 0.3855085898 1.3308977080 5.0165511168
H 0.9043498664 -0.8856875395 0.6421097940
H -4.6456097438 2.5268633817 -0.7671275306
H -4.8005924124 1.3293711754 0.5496082224
H -4.8450644871 0.7980460227 -1.1558766770
