48
CONF1
C -3.3077753857 1.5422425608 -1.8434445835
C -3.0384730083 0.8391425140 -0.5144327490
C -2.7520138616 1.8015316787 0.6539491276
C -3.2137581222 0.9885525859 1.8662940467
N -4.4588788760 0.3161503241 1.4343844979
C -4.2659968823 -0.0006938540 0.0075599296
N -3.8850236419 -1.3949892905 -0.2336284184
C -2.5175939275 -1.4866364184 -0.4214629744
C -1.9626387918 -0.2170020209 -0.6414128818
C -0.6172198525 -0.0663047893 -0.9025261109
C 0.1790171468 -1.2116101729 -0.9258727483
C -0.3505515936 -2.4699187243 -0.6946555767
C -1.7145491813 -2.6260676775 -0.4380340342
O 1.5422736181 -1.1291273778 -1.2453493744
C 2.3438035957 -0.4009550846 -0.3915590338
O 1.9626654385 0.1650332154 0.6053860590
N 3.6192592980 -0.4459937420 -0.8883884942
C 4.7803015824 0.1329104645 -0.3531631487
C 4.7968368948 0.8730720857 0.8337601669
C 5.9999817713 1.4055523002 1.2851351126
C 7.1855130201 1.2181598610 0.5821810880
C 7.1620522884 0.4808225590 -0.5983265346
C 5.9719610507 -0.0582810813 -1.0646509307
C -4.6359711017 -2.4550345604 0.4036652914
C -5.6447576781 1.1409941830 1.6717169324
H -3.5490935256 0.8142333823 -2.6242241522
H -4.1424534131 2.2458481946 -1.7490821063
H -2.4242820314 2.1020775847 -2.1671453964
H -1.6970923112 2.0873829531 0.7016454909
H -3.3505311041 2.7142598110 0.5468768371
H -3.3937338394 1.5899950433 2.7621504731
H -5.1949250855 0.2188702329 -0.5362458896
H -0.1724626732 0.9104675110 -1.0621145558
H 0.3094856271 -3.3304285546 -0.7099672420
H -2.1219501475 -3.6123896676 -0.2475474512
H 3.7292064640 -0.9751212867 -1.7395735046
H 3.8815839063 1.0234143651 1.3879613223
H 6.0027201655 1.9774364650 2.2077561011
H 8.1153538068 1.6396509405 0.9480391394
H 8.0750083146 0.3217782037 -1.1630874524
H 5.9625915540 -0.6324332003 -1.9875737201
H -4.3431650863 -2.6109187832 1.4528326091
H -5.7000012011 -2.2023352422 0.3826401249
H -4.5019042329 -3.3920825147 -0.1477998785
H -5.7661810671 1.2982554025 2.7481108914
H -6.5352905078 0.6137217561 1.3141404757
H -5.6184376071 2.1326740149 1.1820813743
H -2.4592433377 0.2310489581 2.1143913856
