52
CONF4
C 3.7759909263 -0.3528425896 0.2427683791
C 2.7943690804 0.2790131778 -0.7162334555
C 3.4344904547 0.6722966910 -2.0525724169
C 2.4700908135 1.4966374677 -2.9154481336
C 1.8843227964 2.6641605848 -2.1079039389
C 1.3128707921 2.1850429225 -0.7701848399
O 2.2571445952 1.4555806209 -0.0417942777
O 0.1211473078 1.4000419888 -1.0768403410
C -0.6384169850 1.0231387041 0.0103534444
C -0.8472511119 -0.3036549134 0.2724040016
O -1.5763957774 -0.7116155221 1.3472618550
C -2.1269188608 0.1969811587 2.2088222559
C -2.8204257563 -0.3153958897 3.2903478656
C -3.4093923166 0.5975554180 4.1639363476
C -3.3165019947 1.9784148201 3.9687035826
C -2.6162247516 2.4707466659 2.8749656203
C -1.9956115406 1.5707980761 1.9651269648
C -1.2497239399 2.0530517203 0.8303159910
O -1.1272479663 3.2743437360 0.5743637574
O -2.5236604429 3.7895533687 2.6859812367
O -4.0852157006 0.0723660443 5.2195122432
C -0.3115945364 -1.4207114270 -0.4974673516
C -0.2706245625 -1.3593978416 -1.8964501057
C 0.4287088767 -2.3112657558 -2.6148675246
C 1.0130414313 -3.4051513137 -1.9559592335
C 0.8970852884 -3.5145248432 -0.5727221761
C 0.2529414967 -2.5239743038 0.1543544874
O 1.6943269185 -4.3459753706 -2.6503614409
O 0.6030041303 -2.2607051734 -3.9765882552
O 2.8869231633 3.6403081899 -1.8477109778
O 1.4226654696 0.6545671028 -3.4355580737
O 3.8712264262 -0.4848939367 -2.7517874843
H 3.2689316752 -0.6481084280 1.1651324521
H 4.2189170841 -1.2378000159 -0.2196254526
H 4.5746165391 0.3531083300 0.4925449584
H 1.9695536170 -0.4175393134 -0.9144409550
H 4.3328248836 1.2731640929 -1.8562532843
H 3.0080109842 1.8921583860 -3.7828068181
H 1.0973593704 3.1580317550 -2.6876177530
H 1.0302541821 3.0353039927 -0.1457466496
H -2.9117488222 -1.3817268334 3.4492902491
H -3.7804644350 2.6801064303 4.6547361315
H -4.4516966077 0.7882905786 5.7516589137
H -0.7953897313 -0.5679395557 -2.4213960220
H 1.3565442925 -4.3637295610 -0.0792266680
H 0.2160421635 -2.5842303800 1.2359061743
H 1.6969987621 -4.0829737792 -3.5825563931
H 0.6781967456 -1.3324841686 -4.2469545643
H 3.4037522131 3.3364636151 -1.0893813872
H 3.0850181593 -0.8507530989 -3.1823275658
H -1.9851910530 3.9099993157 1.8522950982
H 0.7614463285 0.5954731447 -2.7279719052
