50
CONF22
C 3.6840268013 0.5308044531 3.6563790350
C 3.9331510284 0.1274882093 2.1982961784
C 4.7506640464 -1.1780112373 2.1913687493
C 4.7479302514 1.2457424990 1.5215482773
C 2.6296017985 -0.0873501858 1.4250702967
C 2.6736112263 -0.4578525185 0.0759415622
C 1.5229873970 -0.6671270538 -0.6756193510
C 0.2882088499 -0.4891440806 -0.0632889994
C 0.2011783065 -0.1290579130 1.2717239039
C 1.3673850521 0.0647408654 2.0049168369
O -0.9276343655 -0.6602051787 -0.7304017185
P -1.1199668065 -0.3865931373 -2.3107555429
O -0.3150179773 -1.1908580085 -3.2424199361
O -0.8987336904 1.1884665140 -2.5181194908
C -1.3725812488 2.1407588144 -1.6022334563
C -2.7027692866 2.5347469299 -1.6377361390
C -3.1304296418 3.5183842885 -0.7506066982
C -2.2374221081 4.0935868424 0.1491058672
C -0.9054863550 3.6889527921 0.1591547742
C -0.4625094145 2.7071202548 -0.7210856175
O -2.7193907010 -0.5160960815 -2.4074765025
C -3.3548492880 -1.7473732500 -2.1827815586
C -4.2632888016 -1.8097675947 -1.1363694122
C -4.9555496038 -2.9969321244 -0.9214383018
C -4.7298892062 -4.0993501324 -1.7413324423
C -3.8104543126 -4.0128689515 -2.7828041533
C -3.1146002378 -2.8303325018 -3.0173356650
H 3.1361569913 -0.2438017301 4.2027588958
H 3.1248678501 1.4695839645 3.7265057087
H 4.6434958042 0.6776918629 4.1617938170
H 5.6831659266 -1.0422248674 2.7499429973
H 4.1840102688 -1.9908913790 2.6562972642
H 5.0097722029 -1.4867709640 1.1748181799
H 4.1822108404 2.1829772337 1.5097413384
H 5.0013566269 0.9924273560 0.4883719556
H 5.6838163201 1.4144503271 2.0654450036
H 3.6311288992 -0.5976328081 -0.4153321148
H 1.5830647216 -0.9670728529 -1.7158215036
H -0.7760038419 0.0100246814 1.7209002273
H 1.2725753054 0.3471881289 3.0463684416
H -3.3807935254 2.0769708493 -2.3481695412
H -4.1674896317 3.8373346085 -0.7682390801
H -2.5777939414 4.8602238218 0.8369743622
H -0.2035772096 4.1371894036 0.8546810595
H 0.5694173081 2.3738835491 -0.7287285827
H -4.4131546718 -0.9379586611 -0.5092739876
H -5.6701797700 -3.0593884344 -0.1072905360
H -5.2700393738 -5.0240843890 -1.5688831170
H -3.6322213314 -4.8696190414 -3.4243047447
H -2.3919590789 -2.7423734582 -3.8202578303
