88
CONF22
C 1.6524679795 -1.4273120176 -0.6673523293
C 0.1567142136 -1.4585507788 -0.3440900230
C -0.6287583660 -0.7136942175 -1.4131768969
O -2.0356049030 -0.6689084252 -1.0501064549
C -2.8169707408 -1.7011702260 -1.4445831677
O -2.3997752312 -2.6599264718 -2.0784214183
C -4.2163289040 -1.5524874956 -1.0428353294
C -4.6903341048 -0.5018649270 -0.3437556789
C -6.0616842404 -0.2780300235 0.0838875075
C -7.0991289408 -1.1759845736 -0.2114122588
C -8.3909992654 -0.9033098235 0.2276170239
O -9.4686428689 -1.6974605596 0.0002279365
C -9.2537311626 -2.9009811376 -0.7504741960
C -8.6592263213 0.2623388429 0.9708615171
O -9.9204721587 0.5013087225 1.4431528905
C -10.7604803862 1.2021782962 0.4980928535
C -7.6208593382 1.1609115894 1.2577266119
O -7.9818208766 2.2609976131 1.9679444412
C -6.9506911131 3.2065616246 2.2854745992
C -6.3250436743 0.8874500885 0.8195411936
C -0.1821227005 0.7353911302 -1.5616171597
O -0.8312451191 1.3463674644 -2.6812289982
C -1.9130849399 2.2131258843 -2.3332781626
C 1.3209652457 0.7870965075 -1.8366077772
C 1.7890772216 2.2241229059 -1.9115575957
O 1.2477630616 3.1752167372 -1.3854606856
O 2.9441469707 2.3124820372 -2.5975095644
C 3.5406071830 3.6325090452 -2.6552359051
C 2.1692225361 0.0136752040 -0.7969552035
C 2.2081858641 0.6894739478 0.5759132648
C 3.0131775371 -0.1242974702 1.5925866356
N 2.5131051251 -1.5149721878 1.6667035824
C 3.3122825361 -2.2851294461 2.6362507825
C 4.7938404961 -2.4705169427 2.2367631884
C 5.3174131056 -1.1950508365 1.6619677802
C 4.4975936424 -0.1397603806 1.3527546887
N 5.2528154960 0.8973013098 0.8254011660
C 6.5736816079 0.5142497785 0.7804395356
C 6.6517190052 -0.8115416189 1.2987418028
C 7.9039512541 -1.4286847401 1.3554034376
C 9.0341942296 -0.7469114859 0.9130190416
C 8.9238786109 0.5639732471 0.4081973658
O 9.9934790898 1.2970599951 -0.0428355234
C 11.2873683525 0.6916983360 0.0173467041
C 7.6902002850 1.2115660901 0.3350487114
C 2.5047768298 -2.1781952968 0.3540252918
H 1.7977823388 -1.9272671545 -1.6353072378
H -0.1919687479 -2.4958279294 -0.2993218975
H -0.0423429386 -1.0032592559 0.6318389741
H -0.5359506321 -1.2160378454 -2.3827927972
H -4.8493652627 -2.3736232381 -1.3624251457
H -3.9864601862 0.2762472270 -0.0580734034
H -6.8948508089 -2.0732818307 -0.7793602582
H -8.5495136061 -3.5638192202 -0.2347336142
H -10.2297570977 -3.3816834218 -0.8172715337
H -8.8830304876 -2.6744840351 -1.7568077884
H -11.7335519360 1.3159143999 0.9785383407
H -10.3384449327 2.1883079973 0.2731968192
H -10.8662137805 0.6211373488 -0.4245592227
H -6.1724183753 2.7451547902 2.9040243109
H -7.4445445336 3.9993099622 2.8475624702
H -6.5047536616 3.6223604028 1.3745860802
H -5.5103306558 1.5680550090 1.0336059841
H -0.4199849934 1.2903163844 -0.6437506583
H -2.2719430012 2.6533018926 -3.2668521533
H -2.7336301713 1.6643852526 -1.8546896465
H -1.5703015706 3.0140554944 -1.6647722123
H 1.4990740831 0.3237587919 -2.8154966609
H 2.8641784343 4.3296152940 -3.1552734299
H 4.4586662998 3.5096297375 -3.2281943273
H 3.7604378823 3.9900384788 -1.6462380744
H 3.1955463487 -0.0303243155 -1.1844719283
H 1.1970091583 0.8196360204 0.9739736978
H 2.6349174182 1.6961356907 0.5011553900
H 2.8291956999 0.3246031017 2.5813489346
H 2.8373843710 -3.2631210133 2.7771368297
H 3.2642110288 -1.7510651303 3.5937211877
H 4.9026937833 -3.2938217483 1.5163741693
H 5.3648494406 -2.7691835423 3.1251333616
H 4.9014332658 1.7925064118 0.5277443843
H 8.0043216321 -2.4381767968 1.7440256955
H 9.9984973796 -1.2366100020 0.9635200939
H 11.5647037297 0.4468205789 1.0500602795
H 11.3328836723 -0.2143688764 -0.5993899210
H 11.9804856105 1.4352092619 -0.3784106956
H 7.6268162597 2.2213888690 -0.0574379151
H 2.1075012949 -3.1910441380 0.4982099886
H 3.5211460458 -2.2802045255 -0.0667217965
