54
CONF6
C -4.9624275472 -2.0529533813 1.4870828945
C -4.0389351495 -2.4707757142 2.6300997185
C -3.4430340567 -1.2201675921 3.3639349112
N -2.3608795551 -0.7522600469 2.5134542103
C -1.5003499518 -1.7932561638 1.9373801119
S -2.5065014596 -3.3365709128 1.9589965126
C -1.4175990367 -0.9303795876 0.6278785430
C -2.3134744584 0.0576572413 1.4005277375
O -2.8593868456 1.1149847900 1.1426302490
N -0.1733382592 -0.4824437580 0.0900296166
C 0.6363827120 0.3407349764 0.8098637637
O 0.4035317800 0.6417358187 1.9701626193
C 1.8473368678 0.9386383927 0.0885943421
C 1.5414497095 2.3500372478 -0.4245495518
C 2.6078645308 3.2167727287 -0.6749059577
C 2.3726491930 4.4915804637 -1.1766152104
C 1.0704578400 4.9130038275 -1.4303438853
C 0.0071731925 4.0537964114 -1.1760777511
C 0.2382650149 2.7744777346 -0.6792382621
C 2.3742467357 0.1531601578 -1.0988903288
O 1.7105362099 -0.4194990399 -1.9317533027
O 3.7304625285 0.2307975294 -1.1321125270
C 4.3904036786 -0.2680431218 -2.2699344621
C 4.2010611545 0.3373072402 -3.5026903770
C 4.9276277077 -0.1338359050 -4.5906379052
C 5.8255742881 -1.1872389731 -4.4356072277
C 6.0003925322 -1.7745140673 -3.1864627786
C 5.2778601485 -1.3154241811 -2.0886947020
C -4.5439628318 -0.2194973876 3.7563015503
O -5.3084535126 -0.5373056645 4.6361898483
O -4.6562737221 0.9449270420 3.1224717853
C -4.7424806990 -3.4230077996 3.5887994998
H -4.4792730375 -1.3470007676 0.8052168240
H -5.8663800979 -1.5800663979 1.8889934064
H -5.2609213460 -2.9285480785 0.9057340417
H -3.0078467410 -1.5578171551 4.3116944627
H -0.5497447400 -1.9362152410 2.4571735696
H -2.0065549347 -1.4023870879 -0.1640095513
H 0.0766494202 -0.6757269794 -0.8733246984
H 2.6373828833 1.0127001965 0.8398952495
H 3.6239523176 2.8910027972 -0.4732903893
H 3.2084796285 5.1585203993 -1.3618219191
H 0.8856098181 5.9098866398 -1.8168227471
H -1.0123764935 4.3779373221 -1.3571061704
H -0.6065679094 2.1256524073 -0.4725095567
H 3.4977309862 1.1566710722 -3.6038516668
H 4.7908578674 0.3267358934 -5.5633282923
H 6.3897353417 -1.5485265629 -5.2886574843
H 6.7008852662 -2.5934126837 -3.0612466825
H 5.3972208524 -1.7551938752 -1.1047936095
H -3.9842493635 1.0983720817 2.4076497370
H -5.6257687124 -2.9331376561 4.0070945702
H -4.0839838164 -3.7159070827 4.4102506610
H -5.0610166163 -4.3259785312 3.0594610602
