37
CONF589
C -1.8265002338 -2.9466676233 -2.5955506811
C -0.8779509943 -1.7715074732 -2.5867693206
O -1.5991119901 -0.5557433928 -2.1880267227
P -1.4072134555 0.0797896380 -0.7526319041
O -2.2543014075 1.2593286065 -0.4894597659
O -1.5591117620 -1.1616656900 0.2337442655
C -1.8600952452 -0.9706714538 1.6584984603
C -2.3947871673 -2.2812239341 2.1801681351
O 0.1901573838 0.4373053293 -0.7714061022
P 1.2213673039 0.6187956014 0.4828959109
O 1.5380207982 -0.6521534435 1.1638860525
O 2.4104405971 1.4081422622 -0.2204757993
C 3.3520132370 0.6785556880 -1.0781858226
C 4.5435422112 0.2109172404 -0.2754657463
O 0.5597324389 1.6974524011 1.4343978375
C 0.1923270864 3.0358215921 0.9429334500
C -0.8873104305 3.5673744644 1.8507187767
H -2.2061943441 -3.1453946966 -1.5902943810
H -1.2952919238 -3.8359905172 -2.9498457512
H -2.6700664021 -2.7572518060 -3.2646665804
H -0.0339259714 -1.9358724132 -1.9089471068
H -0.4888673359 -1.5546428828 -3.5849290750
H -2.5919317105 -0.1622806962 1.7508978831
H -0.9317637175 -0.6867720612 2.1631214312
H -2.6152220244 -2.1799106116 3.2471152994
H -3.3144176722 -2.5618023878 1.6594945618
H -1.6555108299 -3.0768050486 2.0543973111
H 3.6353492813 1.3992634622 -1.8487895065
H 2.8319851639 -0.1578039117 -1.5590008913
H 5.2602718173 -0.2772165511 -0.9438719937
H 5.0395247187 1.0585677951 0.2050323063
H 4.2360846557 -0.5046768766 0.4909991069
H 1.0984486938 3.6483583443 0.9696783289
H -0.1648320983 2.9515934273 -0.0876452395
H -1.1585257957 4.5780768323 1.5306012797
H -1.7765400040 2.9350357102 1.7909171292
H -0.5397920509 3.6116747643 2.8864652609
