58
CONF76
C -1.2052524158 -0.9459710297 -3.1072755564
C -0.6117277906 -1.5421506404 -1.8422471120
O 0.1463311790 -0.4942419467 -1.2062970831
C 1.0337994331 -0.9673169879 -0.2149062355
O 2.1373390070 -1.6461776645 -0.7846668992
C 2.9562583093 -0.7509466271 -1.5642979272
C 3.4532950127 0.3875088131 -0.7030410243
N 2.3212955820 1.1381422125 -0.1308676125
C 2.8328377741 2.2224428696 0.7103428491
C 3.4448148667 3.3129637890 -0.1079711371
N 2.9717408875 3.7767641113 -1.2326212439
N 3.8416230340 4.7883070522 -1.5755000464
C 4.8627305970 4.9644542304 -0.6780013450
O 5.7932108143 5.7687215109 -0.6975504674
N 4.5766701688 3.9876714206 0.2730683919
C 1.4796750270 0.2243180560 0.6574926430
C 0.2644432270 0.8934328063 1.2562871108
C -0.4300429017 1.9016573318 0.5817801633
C -1.5756739856 2.4675420360 1.1304631897
C -2.0181573109 1.9969801251 2.3560128082
F -3.1392789738 2.5444444464 2.8965968652
C -1.3657340469 0.9971558360 3.0533254226
C -0.2131537933 0.4527755635 2.4912603767
C -1.6833621571 -2.0583432262 -0.9040128080
C -1.8415188223 -3.4217789822 -0.6888289197
C -2.8496625304 -3.8872304921 0.1579940682
C -3.7136608890 -3.0037629818 0.7873586709
C -3.5477446249 -1.6358158996 0.5662112239
C -2.5387277789 -1.1594917756 -0.2597431581
C -4.4877666582 -0.6913646032 1.2582530303
F -5.7797723361 -1.0898137530 1.1296559115
F -4.2434676370 -0.6221696097 2.5947178369
F -4.4112713336 0.5668352747 0.7762491778
C -3.0030674363 -5.3683083087 0.3467791565
F -3.5566123226 -5.9581902772 -0.7475881529
F -3.7886840479 -5.6823980842 1.3996498967
F -1.8068924676 -5.9762987873 0.5444336801
H -0.4042835448 -0.6054089142 -3.7692456225
H -1.8500422891 -0.0963790082 -2.8611972276
H -1.8023094213 -1.6979114151 -3.6303659074
H 0.0619779299 -2.3687432392 -2.1036834390
H 0.5397089857 -1.7079349687 0.4294886807
H 3.7949224234 -1.3487632145 -1.9286219046
H 2.3839825966 -0.3727832790 -2.4208811192
H 4.0567673875 1.0663329851 -1.3166578873
H 4.1004175392 -0.0147485129 0.1004495257
H 3.5847312184 1.8658639427 1.4392658928
H 2.0054849419 2.6481368682 1.2898821534
H 3.7188697018 5.2998040438 -2.4356372633
H 5.1341914074 3.8138343347 1.0959732479
H 2.0653968838 -0.2267885228 1.4827430110
H -0.0670147448 2.2510701383 -0.3787017486
H -2.1215530003 3.2534253109 0.6194099759
H -1.7457417321 0.6600280422 4.0113741213
H 0.3213254111 -0.3271478441 3.0267076696
H -1.1741192993 -4.1248182055 -1.1788696389
H -4.5016288511 -3.3645044143 1.4384087250
H -2.4059164991 -0.0929090468 -0.4066210618
