55
CONF53
C 3.7545077036 -1.3352958917 -5.2762024218
O 2.4345995762 -1.0956141329 -4.8012557204
C 2.2494588883 -1.0519753270 -3.4501522126
C 3.2594798286 -1.2381978687 -2.5062230443
C 2.9414475489 -1.1746406223 -1.1512804142
C 1.6429558810 -0.9247196586 -0.7178105962
C 0.6387460122 -0.7466906640 -1.6780911956
C 0.9386514722 -0.8085103986 -3.0264542802
C 1.3657061236 -0.8327841438 0.7586277655
S -0.0650025267 -1.9588648507 1.1620905774
C -0.7220807164 -1.2561675498 2.6609429230
C -0.7362986913 -2.0376924035 3.8205043713
C -1.3336660251 -1.5746876622 4.9855125127
C -1.8918254034 -0.2998309159 5.0137804302
C -1.8646982598 0.4955177286 3.8766096065
C -1.3021128776 0.0268448985 2.6861689477
N -1.3452787549 0.8562231150 1.5347089152
C -2.6571768089 1.3202164129 1.0658657092
C -3.4064121168 0.2221923943 0.3113599966
N -2.7414698234 -0.1808042503 -0.9212247300
C -2.8899932919 0.8164042892 -1.9771672093
C -3.2111250564 -1.4867873556 -1.3696577849
C -0.2399108574 1.1748915162 0.7845375648
O -0.2811938629 1.9037551044 -0.1927932648
C 1.0848131155 0.5852672700 1.2836696459
O 2.1702715965 1.3940931374 0.8164058410
C 2.1999198015 2.6561160625 1.3283057546
C 3.2541860004 3.4728262034 0.6441524789
O 1.4580964475 3.0353984633 2.2023631025
H 4.4465456998 -0.5484078954 -4.9481397254
H 3.6863800105 -1.3256304109 -6.3649087489
H 4.1282806592 -2.3128939155 -4.9440348981
H 4.2820056444 -1.4349635237 -2.8031459068
H 3.7319164073 -1.3166859547 -0.4193564629
H -0.3840483182 -0.5598679861 -1.3605775896
H 0.1695305652 -0.6686870706 -3.7786684537
H 2.2430778675 -1.1994293443 1.3027009628
H -0.2763569412 -3.0196524540 3.7898063593
H -1.3454794849 -2.1992575984 5.8724389650
H -2.3323967730 0.0853688832 5.9273427246
H -2.2669709669 1.5025033878 3.9073347191
H -2.4874161956 2.1993339605 0.4414852839
H -3.2577228421 1.6270919672 1.9274865134
H -3.4767837333 -0.6555907607 0.9671807965
H -4.4448755683 0.5727500840 0.1307531817
H -2.3558261281 0.4790320003 -2.8716899681
H -2.4389199235 1.7640689165 -1.6722742098
H -3.9495486001 0.9882398951 -2.2532458998
H -4.2928881508 -1.5006604836 -1.6098091971
H -2.6614155221 -1.7841274397 -2.2694061728
H -3.0148088787 -2.2353135149 -0.5950877080
H 1.0911922494 0.5775182700 2.3786043776
H 3.4200564011 4.3950988127 1.1991148460
H 4.1819649122 2.9052422970 0.5432657968
H 2.8999108934 3.7084382696 -0.3644632617
