56
CONF3
C -3.0516240310 1.4881574284 -1.0093180921
C -2.5931729734 0.1476827896 -0.3790124619
C -3.2422368728 -1.0120374751 -1.1602917827
C -4.7456698245 -1.1232402951 -0.9254228927
C -5.0556678536 -1.2436674944 0.5469745732
O -6.0640387146 -1.8290412008 0.9522461417
C -4.1501284145 -0.5648147808 1.4633530707
C -3.0615120930 0.1352004327 1.0630697468
C -2.3331943041 1.0210615755 2.0270144791
C -0.8092565857 0.9094046169 1.9304906927
C -0.3347381500 1.0685591129 0.4825867431
C -1.0281912099 0.0752595511 -0.4709052169
C -0.4388566336 -1.3398554520 -0.3544691145
C 1.0773113390 -1.3230170017 -0.5489523828
C 1.8618187995 -0.3590583789 0.3620514037
C 1.1988818207 1.0370101532 0.3484710493
C 1.6918073542 1.7199194989 -0.9557720547
C 2.9354939800 0.9502548325 -1.4378902862
C 3.2588616454 -0.0721796428 -0.3269696561
C 4.2163943992 0.5533365854 0.6757920042
O 4.0614475304 1.6910896639 1.0957188058
C 5.4041023490 -0.2488302091 1.1556929555
O 6.1295752558 0.4519922745 2.1461022260
O 3.9145190058 -1.2503217206 -0.7916087108
C 2.0651496809 -0.9712873470 1.7503198381
O -0.7443253314 -1.9994567736 0.8899333297
H -2.5923346340 2.3484943101 -0.5202500503
H -4.1357727980 1.6063970751 -0.9332134359
H -2.7711128665 1.5024516124 -2.0674737251
H -2.8069174406 -1.9677547996 -0.8502116866
H -3.0225189189 -0.8963822232 -2.2276443576
H -5.1684205204 -1.9861888771 -1.4481265109
H -5.2784888170 -0.2362546148 -1.2945690749
H -4.4451176247 -0.5577738938 2.5108104428
H -2.6227790872 2.0562057832 1.7874605077
H -2.6823994930 0.8268494077 3.0457122245
H -0.3523944183 1.6924453936 2.5468662794
H -0.4975133580 -0.0531834817 2.3379277492
H -0.6285495514 2.0812309022 0.1710932010
H -0.7945465439 0.3775076535 -1.5022853061
H -0.8322859891 -1.9489754224 -1.1801945490
H 1.4516387260 -2.3461695277 -0.4278344781
H 1.2245537878 -1.0477756767 -1.6011618338
H 1.6038491015 1.6009025916 1.1956642018
H 1.9172074360 2.7716326636 -0.7612342448
H 0.9136537305 1.6965758562 -1.7249644031
H 3.7916532539 1.5993498727 -1.6391529441
H 2.7295267126 0.3959540190 -2.3592961110
H 6.0357318025 -0.4677693032 0.2812318815
H 5.0527362679 -1.2169693874 1.5387940768
H 5.7037970571 1.3247480932 2.2132244739
H 3.3867585539 -1.6297703677 -1.5052532392
H 2.7190442159 -1.8480842905 1.6751532630
H 2.5219742855 -0.2540241595 2.4416606293
H 1.1216844347 -1.3069164693 2.1778318689
H -1.7054062721 -2.0288731814 0.9921302683
