20
CONF17
C -2.4117028472 1.4914061822 -0.2857717549
O -2.1051262381 0.1991812890 -0.8699999541
P -0.9548456265 -0.7145160071 -0.2826269007
O -0.6960802520 -1.9452212195 -1.0459752892
O -1.3386285377 -0.8135025278 1.2592824875
C -0.5033134689 -1.6153556074 2.1347355022
O 0.3757801573 0.2631088423 -0.1757555680
C 1.3033162780 0.2510895004 -1.2045010930
C 2.7108456108 0.4533369178 -0.6017388038
Cl 3.0143918336 -0.9482156735 0.4925650629
Cl 2.8298629160 1.9679691316 0.3200830514
Br 4.0540478716 0.4065406143 -2.0337130961
Br 0.8672035665 1.6852534741 -2.5190471122
H -3.1682382157 1.9340683400 -0.9333737432
H -2.8068617673 1.3607864088 0.7248345577
H -1.5180950273 2.1213859854 -0.2715718161
H -1.0545437313 -1.7081428369 3.0703478782
H -0.3346669185 -2.6028836523 1.6962383634
H 0.4493633953 -1.1063932794 2.3054403041
H 1.2872912132 -0.6798962681 -1.7794520655
