47
CONF16
C 2.8673544306 0.1438398003 -5.1900090502
C 3.1393707859 0.5328949022 -3.7914853686
C 2.3786412438 0.5482708501 -2.6519518511
C 3.2788915383 1.0417904962 -1.6538962530
N 4.4666328902 1.2977825972 -2.1428703403
O 4.3736035354 0.9857792928 -3.5083313735
C 3.0072007839 1.2375275155 -0.2170045933
C 2.7558471860 2.5063240531 0.3228124925
C 2.3874902393 2.6774684107 1.6534777874
C 2.2552663490 1.5607743701 2.4678960289
C 2.4991140040 0.2841393814 1.9750100039
C 2.8746744490 0.1400109201 0.6469042998
Cl 3.1473797128 -1.4679406513 0.0211389684
Cl 2.8452813398 3.9115148606 -0.7077807048
C 0.9881644786 0.0690011567 -2.5229507456
O 0.4789320173 -0.7148454554 -3.3142514360
N 0.3114761969 0.5692029129 -1.4377482755
C -0.9178717822 0.0053675284 -0.9760535673
C -0.8407004067 -0.9458708877 0.2727734782
N -1.5213572833 0.0944653775 1.0484495181
C -1.7538974447 0.9265904869 -0.0503548470
O -2.3729996916 1.9506409873 -0.1624317231
C -2.4563090917 -0.3322691796 2.0569773907
C -3.2019061704 -1.5879497705 1.4646902436
S -1.9266175469 -2.4305095637 0.3779332173
C -4.3809992487 -1.1068088437 0.6161420467
C -3.6744840069 -2.5814092438 2.5229573986
C -1.7113631555 -0.6364550191 3.3465662090
O -0.5629275877 -0.9967365063 3.4223424499
O -2.5145491923 -0.4555102019 4.4227312488
H 3.5115384038 -0.6929442647 -5.4792250030
H 1.8261190337 -0.1639254431 -5.2807879093
H 3.0782641575 0.9788422499 -5.8653641449
H 2.1933351511 3.6733958414 2.0322280117
H 1.9500041498 1.6824699633 3.5013706174
H 2.3803636989 -0.5888330184 2.6047303243
H 0.7946357857 1.2029038061 -0.8183154924
H -1.4822364278 -0.4160795239 -1.8112243505
H 0.1672019635 -1.1954663756 0.6130226353
H -3.1847432137 0.4644147945 2.2421006921
H -5.1487687304 -0.6584692023 1.2585034680
H -4.8255740281 -1.9491878842 0.0803416373
H -4.0722882336 -0.3631605449 -0.1229493384
H -4.3967698217 -2.1023223581 3.1918697762
H -4.1705373545 -3.4287974291 2.0416902757
H -2.8421973761 -2.9697245015 3.1156491016
H -1.9976856404 -0.7001957551 5.2074752427
