45
CONF27
C 2.0394340438 0.4652824462 2.7581351788
N 2.2085807017 -0.9845396147 2.6482448223
C 1.8204220517 -1.6141156023 3.9100155517
C 1.4035819491 -1.5197975064 1.5441869787
C 2.0199541436 -1.2443334756 0.1726576739
C 1.0023399089 -1.4361691051 -0.9530795902
N -0.0302378109 -0.3888682449 -0.9417673794
C 0.3543133207 0.9535842320 -1.1787906512
C 1.5740090852 1.1972062322 -1.8408480630
C 2.0341050785 2.4807691155 -2.0934627253
C 1.2769175091 3.5775408159 -1.6988349195
C 0.0722668835 3.3492234254 -1.0493459772
C -0.4158397830 2.0682027695 -0.7669011479
C -1.7390256910 2.0274068815 -0.0273004083
C -2.1432823594 0.6911861951 0.5972920267
C -2.4208020762 -0.3274463118 -0.4618113655
C -3.7118943138 -0.7801285587 -0.7338486070
C -3.9527502979 -1.7188939349 -1.7329354304
C -2.8876652861 -2.2090341848 -2.4834819545
C -1.5959787498 -1.7553372261 -2.2376574470
C -1.3545032113 -0.8138986407 -1.2310539061
H 2.6776090703 0.8519282944 3.5594141970
H 0.9909203812 0.7473697313 2.9828051320
H 2.3287334449 0.9637118789 1.8284389135
H 2.4326534117 -1.2151521941 4.7257371317
H 0.7561113774 -1.4388485354 4.1647382691
H 1.9855534380 -2.6951051375 3.8542907238
H 1.3175640779 -2.6052261088 1.6792778706
H 0.3726008248 -1.1134272431 1.5743239998
H 2.4247645357 -0.2295356068 0.1336520772
H 2.8642894171 -1.9234170570 0.0074366783
H 1.5115925706 -1.5226017454 -1.9249632408
H 0.4790928587 -2.3849889977 -0.7958076472
H 2.1769417254 0.3628238239 -2.1757606656
H 2.9810997781 2.6158642842 -2.6069781205
H 1.6184923672 4.5901394907 -1.8857323847
H -0.5243572626 4.1985828006 -0.7245168475
H -1.6993524405 2.7932786009 0.7563737720
H -2.5378527610 2.3370059106 -0.7152555199
H -3.0378467381 0.8409936948 1.2095515833
H -1.3414954317 0.3400853324 1.2587020326
H -4.5367398568 -0.4015105748 -0.1356883321
H -4.9630686924 -2.0675132166 -1.9212402805
H -3.0607570937 -2.9368594284 -3.2701439946
H -0.7704943895 -2.1254370956 -2.8372075153
