47
CONF76
C 2.1637958565 -4.8563846619 -0.1607546553
C 2.7051552996 -4.1371924674 1.0821483513
C 4.2052378561 -4.4073521525 1.2595556565
C 2.4100881324 -2.6525585225 1.0288200561
C 1.5972539827 -2.0506918763 1.9935493216
C 1.2973240368 -0.6927751339 1.9448114846
C 1.8280569317 0.0690404782 0.9164244517
C 2.6617991982 -0.4832953279 -0.0461692299
C 2.9387146907 -1.8458821847 0.0156292941
O 1.4906683496 1.4353210945 0.9087728805
P 1.0874717488 2.2046956366 -0.4386045780
O 2.1557848450 2.6584872781 -1.3520295372
O 0.2345924074 3.3722118980 0.2620733340
C -0.1164445378 4.5083765531 -0.4957392592
C 0.6890466457 5.6342918354 -0.4125059947
C 0.3129229317 6.7740633457 -1.1189353002
C -0.8474980212 6.7729220595 -1.8908061508
C -1.6393703513 5.6286832568 -1.9568397873
C -1.2776368556 4.4807236184 -1.2547451895
O 0.0729808856 1.2388908923 -1.2325255204
C -0.8309152179 0.3550237937 -0.6173361928
C -1.6972047949 0.7701547632 0.3847624018
C -2.5654031718 -0.1680834287 0.9409373451
C -2.5680293856 -1.4859739697 0.4920479445
C -1.7013714081 -1.8722123178 -0.5295863746
C -0.8244166564 -0.9503467277 -1.0915211750
H 1.0903261781 -4.6789234613 -0.2817649887
H 2.3294804477 -5.9356270238 -0.0781448329
H 2.6725189990 -4.5047839902 -1.0650146248
H 2.1823602029 -4.5368981361 1.9598716235
H 4.5925547950 -3.9074848210 2.1529132638
H 4.3878718167 -5.4824663974 1.3578475365
H 4.7710166974 -4.0468154064 0.3936428646
H 1.1790201322 -2.6555609484 2.7933957372
H 0.6478370355 -0.2298507255 2.6800269458
H 3.0824183449 0.1327926319 -0.8342891091
H 3.5814993271 -2.2789750651 -0.7448981448
H 1.5887937559 5.6119136357 0.1929293907
H 0.9314658940 7.6640836407 -1.0640911468
H -1.1352477491 7.6640225438 -2.4388890506
H -2.5452153101 5.6245213597 -2.5544371036
H -1.8850040051 3.5822565622 -1.2902857557
H -1.6960721139 1.7976793325 0.7292947844
H -3.2438161882 0.1413206649 1.7295288275
H -3.2460999881 -2.2092419461 0.9327344644
H -1.7003279492 -2.8964707086 -0.8883580729
H -0.1297038769 -1.2320111828 -1.8754454587
