42
CONF16
C 0.7470815060 -2.1824149148 1.6473911866
O 0.6097915827 -1.6192684864 2.9702774348
C -0.1110032613 -0.5190656564 3.1699371861
C -0.9656032347 0.1531409174 2.3587531107
C -1.4605892091 -0.2804529683 1.0251639703
C -2.4250785270 -1.2873330535 0.9500517516
C -2.9319299036 -1.7040041230 -0.2756772796
C -2.4846516081 -1.0989027605 -1.4443451040
C -1.5352009471 -0.0835348860 -1.3814528781
C -1.0157700348 0.3293050423 -0.1582495502
C 0.0066940745 1.4307127735 -0.0609160309
O 0.5236754839 1.8455445610 -1.3400858723
C 1.4461496441 1.0608248573 -1.9313639700
C 1.9172159109 1.4956124142 -3.1829868480
C 2.8621380030 0.7222536197 -3.8208893854
C 3.3189848602 -0.4540504634 -3.2157229936
C 2.7843856020 -0.7769687668 -1.9829632238
N 1.8645963697 -0.0469407846 -1.3393636934
C 3.2005010135 -2.0338856796 -1.2503098481
F 4.1773097619 -2.6970194213 -1.9062544572
F 2.1592550045 -2.8890692050 -1.1091892397
F 3.6601639951 -1.7589611698 -0.0099790283
C -1.5090101964 1.3919181275 2.9579140319
O -1.2325073642 1.8512639660 4.0484520428
O -2.3968804090 1.9900729416 2.1154448584
C -2.9793914225 3.2041735636 2.6244308384
H 0.9996461106 -1.4036141871 0.9233648863
H -0.1704580153 -2.6898925575 1.3403906196
H 1.5668523925 -2.8958823426 1.7280511337
H 0.0569342236 -0.1261528817 4.1698744750
H -2.7745150392 -1.7429123775 1.8720185220
H -3.6752085155 -2.4935961212 -0.3157131603
H -2.8744419885 -1.4131894139 -2.4071160850
H -1.1919112076 0.3902036915 -2.2949228688
H 0.8308166275 1.1354525918 0.5971888378
H -0.4545105024 2.3363949653 0.3451964641
H 1.5338966756 2.4150609088 -3.6091100131
H 3.2512572582 1.0239071976 -4.7876516794
H 4.0585637396 -1.0857811820 -3.6890228749
H -2.2029612781 3.9444842210 2.8368936364
H -3.6462530450 3.5577131461 1.8377532126
H -3.5380333312 3.0048533886 3.5427905830
