18
CONF6
C 0.6369316941 1.0650390279 0.2873431220
C 1.1747983428 -0.2054496717 0.0610143850
C 0.3619900875 -1.2857731247 -0.2918433837
C -1.0089938019 -1.0936470268 -0.4150120816
C -1.5613342829 0.1686271452 -0.1730471405
C -0.7369316515 1.2459601652 0.1668648837
O -1.2666698061 2.4772430194 0.3856602805
O -2.9145842081 0.3908270759 -0.3532394232
O -1.7949179000 -2.1446397696 -0.7677326593
C 2.6305134324 -0.4554436039 0.1767267110
O 3.1624858265 -1.5357565017 -0.0055978520
O 3.3316516319 0.6503033153 0.5101753657
H 1.2625887792 1.9063113645 0.5566656503
H 0.7915085027 -2.2633964586 -0.4754130973
H -2.2249160152 2.4248078636 0.2410295413
H -3.4093064108 0.0839218366 0.4222932186
H -2.7039699237 -1.8294565299 -0.8882451548
H 4.2691551049 0.4005215557 0.5623575496
