54
CONF50
C -5.8376630669 2.6625321549 -0.9547523138
C -4.6068822841 1.7692249776 -1.0403057509
C -4.7439026310 0.4246238765 -0.2346669197
N -3.3881624521 0.0472749128 0.1183393564
C -2.3066893820 1.0297454473 -0.0729386995
S -3.1547449217 2.6441092126 -0.2351642236
C -1.7222472596 0.5853484147 1.3049379050
C -2.8789008396 -0.4432703247 1.3119422235
O -3.2604737385 -1.3147830125 2.0578515316
N -0.3679474898 0.1394326560 1.4175191307
C 0.0750380323 -0.9531788814 0.7587081456
O -0.6427424273 -1.6235621426 0.0202260353
C 1.5441683427 -1.3449233631 0.9705304053
C 2.2768240366 -0.6293137268 2.0887918816
C 2.3737942415 -1.2350685463 3.3438885486
C 3.0094743053 -0.5786366242 4.3934692356
C 3.5580799179 0.6870486695 4.1981732420
C 3.4678875849 1.2944666367 2.9481410356
C 2.8306190189 0.6406700580 1.8970248143
C 2.2793687875 -1.1525269037 -0.3454825278
O 1.9629664248 -0.3909572780 -1.2266769285
O 3.3902978640 -1.9321745317 -0.3688630575
C 4.2489631706 -1.7810930305 -1.4761583926
C 4.0685757935 -2.6002380401 -2.5792893616
C 4.9602225112 -2.4846407329 -3.6435801210
C 6.0041072268 -1.5629011111 -3.5888846289
C 6.1615467077 -0.7509576316 -2.4670572197
C 5.2775565613 -0.8555341005 -1.3954776973
C -5.6012009424 0.6067786951 1.0142832671
O -5.2055812840 1.0491439456 2.0689958727
O -6.8709253804 0.2420931674 0.7746986096
C -4.2840582768 1.4384078919 -2.4983918632
H -6.0619271611 2.9621203875 0.0728213326
H -6.7026301883 2.1333035657 -1.3669351110
H -5.6765434437 3.5640106406 -1.5518922465
H -5.2234903586 -0.3128698186 -0.8873243039
H -1.6604667692 0.8157663955 -0.9284529077
H -1.9207112179 1.3405570649 2.0704552477
H 0.2643194021 0.6447584692 2.0219565859
H 1.5304659886 -2.4181988394 1.1882157211
H 1.9491507296 -2.2230867487 3.4968653896
H 3.0790020395 -1.0589936581 5.3643679014
H 4.0561232451 1.1968677694 5.0166822401
H 3.8959248064 2.2788044147 2.7875170483
H 2.7638266989 1.1248578859 0.9261246437
H 3.2489122048 -3.3107904256 -2.5991124857
H 4.8367017263 -3.1183535634 -4.5158534297
H 6.6963222820 -1.4783720564 -4.4202082389
H 6.9744525389 -0.0334517969 -2.4217983839
H 5.3796608035 -0.2348193230 -0.5111035146
H -7.4017695313 0.4273614119 1.5695408091
H -3.4104699287 0.7868807312 -2.5878014492
H -4.0930335647 2.3592926494 -3.0546538651
H -5.1411891570 0.9272131038 -2.9509580348
