40
CONF26
C 3.1979897939 3.0107612162 0.4247776691
N 2.0176713738 2.6463202694 -0.3617346305
C 2.2583289027 2.9491150164 -1.7744464097
C 1.6903797138 1.2239445420 -0.2149122515
C 1.2162188568 0.8547008056 1.1878143012
C 0.7417298025 -0.5985121275 1.2608826301
N -0.3706752745 -0.8708435911 0.3420381804
C -0.4108573170 -2.0959633891 -0.3539295225
C 0.2523596073 -3.2394262337 0.1077735712
C 0.2230814397 -4.4196140955 -0.6311135234
C -0.4988657004 -4.4964171754 -1.8178801096
C -1.2023242301 -3.3802688530 -2.2647033127
C -1.1432555673 -2.1889764875 -1.5487517084
S -1.9411480639 -0.7239194262 -2.1727017025
C -2.4398604682 -0.0319242933 -0.6125659459
C -1.5695353396 -0.1569193583 0.4844189934
C -1.9344767629 0.4375566873 1.6991480764
C -3.1158520467 1.1634107706 1.7716867794
C -3.9802936822 1.2963978255 0.6946561974
C -3.6369129439 0.6653209200 -0.4984765198
Cl -3.5323872597 1.9302934207 3.3027779496
H 4.0868179206 2.4077808748 0.1529166530
H 3.0068585140 2.8790227921 1.4933055134
H 3.4360988945 4.0656513245 0.2547017979
H 1.3665872568 2.7078983584 -2.3626380481
H 2.4730942411 4.0162770989 -1.8928375473
H 3.1114906649 2.3780490676 -2.1899444246
H 2.5549510992 0.5834962494 -0.4912640153
H 0.8869703499 0.9975036367 -0.9266014303
H 2.0284583404 0.9498514054 1.9164439370
H 0.4273922638 1.5490053943 1.4962686392
H 0.4946724383 -0.8740707446 2.2964274955
H 1.5695172316 -1.2403833558 0.9495486199
H 0.7902769178 -3.2139725722 1.0483020662
H 0.7579271242 -5.2881870948 -0.2604279465
H -0.5272834377 -5.4181372966 -2.3890824037
H -1.7817267697 -3.4239459808 -3.1818110568
H -1.3085712714 0.3402286201 2.5765593582
H -4.8969511468 1.8673608117 0.7779781128
H -4.2978959578 0.7415351743 -1.3558989381
