48
CONF16
C 3.2865818338 0.4551602471 0.1684858177
C 2.0075097724 0.1261763682 -0.1755031617
C 0.8150133377 0.5121530988 0.5184400121
C 0.9526821222 1.3733459479 1.7426615189
C -0.3923175311 0.0763138723 0.0262234053
C -1.6720210007 0.2868701680 0.6142522498
C -2.9180109406 -0.0643914124 0.1593251301
C -4.0434879607 0.0510621014 1.0905804083
C -3.8356122167 0.6892503967 2.4429159732
C -5.2586237735 -0.4721379743 0.8106361550
C -5.6041682148 -1.1014797895 -0.4936795434
C -4.6821440620 -0.5682601250 -1.5772386018
C -3.1825970255 -0.6707875997 -1.2273189762
C -2.4561908655 0.0879161343 -2.3565561514
C -2.7608339252 -2.1525167185 -1.2212247867
C 4.4267002353 0.0277912312 -0.5695985901
C 5.7299930764 0.3193074969 -0.2764069172
C 6.0869945038 1.1632309440 0.9180556356
C 6.7627099498 -0.2049723630 -1.1427892170
C 8.0929192812 -0.0434284823 -1.0352632986
H 3.4541073161 1.0701984316 1.0483310865
H 1.8670552121 -0.4942052257 -1.0610633406
H 1.4996086359 2.2917630474 1.5024896466
H 1.5220009884 0.8523809736 2.5211316869
H -0.0087308674 1.6652977229 2.1633606533
H -0.3315581184 -0.5297258122 -0.8698553725
H -1.6430135492 0.7379210342 1.5984228004
H -3.1209625546 0.1274587707 3.0550059080
H -4.7816953376 0.7302357432 2.9865431273
H -3.4576593599 1.7136755578 2.3516892618
H -6.0308412878 -0.4347944305 1.5758925905
H -5.5367069258 -2.1982986874 -0.4225082206
H -6.6501676149 -0.8893289091 -0.7470283698
H -4.9240179814 0.4897804489 -1.7425092986
H -4.8521511498 -1.0916355194 -2.5256429772
H -2.8605847461 -0.2349250550 -3.3223012703
H -1.3811449023 -0.0836656732 -2.3837317611
H -2.6206779726 1.1655260358 -2.2613896706
H -1.6924629316 -2.2614023407 -1.0179412437
H -3.2964434690 -2.7125772414 -0.4489285835
H -2.9751991763 -2.6114541415 -2.1936720375
H 4.2328381996 -0.5883877818 -1.4473723411
H 5.7354965571 0.6985628439 1.8456115241
H 5.6241172514 2.1536237729 0.8510033790
H 7.1625593689 1.3093544363 1.0110427667
H 6.3938944753 -0.8011412974 -1.9772196025
H 8.5567499312 0.5306247772 -0.2409885775
H 8.7604938990 -0.4954648330 -1.7599295380
