52
CONF78
C 2.2937251698 2.5301621565 0.3609309748
C 2.2519905784 1.0983030185 -0.1205668208
C 3.5332638224 0.6634637923 -0.8381478768
C 3.3737094751 -0.7313546794 -1.4584494686
C 2.1182607673 -0.7897237522 -2.3440548693
C 0.8929091902 -0.2287413812 -1.6230005770
O 1.1207607531 1.0157954107 -1.0416226338
O 0.5209007458 -1.2571680918 -0.6557578640
C -0.2292000796 -0.8990851964 0.4334823027
C -1.4639126290 -0.3119459409 0.3559136676
O -2.1150425415 0.0907480558 1.4837372789
C -1.5904164650 -0.1277918591 2.7247589065
C -2.3277357766 0.3327053740 3.8009943517
C -1.8148707666 0.1024763977 5.0781526527
C -0.5984262896 -0.5631429509 5.2809951509
C 0.1215659900 -1.0130053847 4.1859006154
C -0.3709029464 -0.8077784864 2.8683278821
C 0.3685138432 -1.2147405006 1.7081129334
O 1.4924830927 -1.7902291455 1.7857241247
O 1.2945084046 -1.6422618911 4.3727867898
O -2.5558651103 0.5558671811 6.1170020036
C -2.2301457187 -0.0264791710 -0.8494865019
C -2.2292648475 -0.9361607780 -1.9202083069
C -2.9722337241 -0.6685995995 -3.0559694045
C -3.7271911004 0.5161827749 -3.1445372203
C -3.7340411856 1.4114034896 -2.0800681511
C -2.9974252331 1.1423155128 -0.9351098728
O -4.4537572288 0.7974769047 -4.2548039473
O -3.0443978313 -1.4918803435 -4.1418109606
O 2.3177361754 -0.0689807246 -3.5602448063
O 3.3973253333 -1.7398181875 -0.4455687898
O 4.6398797953 0.6782775934 0.0596445815
H 1.3570849863 2.7890262725 0.8627527460
H 3.1158627090 2.6575560614 1.0686871256
H 2.4457932907 3.2099395536 -0.4837498800
H 2.0739978782 0.4242141745 0.7279857652
H 3.7562448423 1.3926471542 -1.6284130815
H 4.2419705319 -0.9343918375 -2.0953943848
H 1.9220587491 -1.8286934091 -2.6273073819
H 0.0708669262 -0.0755778346 -2.3303373377
H -3.2697588789 0.8473180014 3.6574687700
H -0.2148752602 -0.7269828978 6.2831568844
H 1.6423882056 -1.8511868264 3.4618673627
H -2.1179504656 0.3463954179 6.9542870288
H -1.6621698815 -1.8602146683 -1.8588952504
H -4.3200529657 2.3205577342 -2.1653123949
H -3.0029548063 1.8488800348 -0.1134230923
H -4.3452831342 0.0779388986 -4.8954340340
H -2.4894722430 -2.2726459353 -4.0106159243
H 2.3276003970 0.8777932206 -3.3618936285
H 2.5829946923 -1.7035363502 0.0935091023
H 4.6029501770 -0.1653270710 0.5379834747
