29
CONF42
C -4.7481638856 -1.0387952905 -0.6978520799
C -3.3348839178 -0.7492879002 -1.1353860775
O -2.8107289773 0.2998432768 -0.2448477821
P -1.3542814873 0.9039858162 -0.4606650358
S -0.8839102870 1.6285257746 -2.1921615022
O -1.2192152821 1.9431608069 0.7250261575
C -1.4867758223 1.5584559140 2.1302300941
C -2.7581634246 2.2232130782 2.5951629620
O -0.4831140012 -0.4389783124 -0.0198828168
C 0.8689394680 -0.5253258314 -0.1165731619
N 1.6039235506 0.5478895437 0.1128095969
C 2.9190058619 0.4688346243 0.0552319834
Cl 3.8047883989 1.9419916622 0.3593621405
C 3.5867794989 -0.7236285083 -0.2282231194
Cl 5.3181831684 -0.8217644368 -0.2929087391
C 2.8224502040 -1.8612578144 -0.4673288064
C 1.4415894650 -1.7656420655 -0.4172209194
Cl 0.4449899317 -3.1537106044 -0.7241625364
H -5.1641016967 -1.8197888211 -1.3411935811
H -4.7709916872 -1.3929169695 0.3362454677
H -5.3735525303 -0.1464633031 -0.7862372204
H -2.6898885891 -1.6284393418 -1.0408946598
H -1.5426395252 0.4688480845 2.2044536304
H -0.6117640543 1.9082371704 2.6824041089
H -3.6193180896 1.8627719525 2.0265664524
H -2.9146012653 1.9847791046 3.6520400959
H -2.6882674177 3.3094092405 2.4928402667
H 3.3019793823 -2.8058777490 -0.6959814851
H -3.2927304760 -0.3733142166 -2.1623984403
