48
CONF25
C -5.8286067787 0.2932686001 0.3363920041
C -4.5643888965 0.6552339497 -0.4289397279
C -3.3290396010 0.3833104822 0.4211769540
N -2.0940791655 0.7005409447 -0.3285560424
C -2.0216621361 -0.0497744446 -1.5872032545
C -3.2689589584 0.2276490877 -2.4140075646
N -4.4640418525 -0.1512555598 -1.6542089420
C -0.9252148321 0.8620475578 0.3914748502
C -0.8404998981 1.8162771913 1.4418492882
C 0.2963982897 2.0358054383 2.1637422992
C 1.4717955316 1.3261350064 1.8615838890
C 1.4318219191 0.4042530901 0.7961165030
C 0.2503128701 0.1666217653 0.0917472096
N 2.5985239095 -0.3002799740 0.4770047509
C 3.7338255511 -0.1167469262 1.1811091752
C 3.8280998557 0.7619891655 2.2299423242
C 2.6841913106 1.5468276706 2.6232670900
O 2.7302165502 2.3719462587 3.5772872402
C 5.1322074400 0.8796516868 2.9284482026
O 6.1194655181 0.2297698679 2.6228159625
O 5.1559768489 1.7579553832 3.9334450571
C 2.6099404603 -1.2330415548 -0.6115703693
C 2.6268460446 -0.7662086894 -1.9235606994
C 2.6468159750 -1.6256199594 -3.0062845744
C 2.6588546755 -2.9839386896 -2.7273786996
C 2.6492798344 -3.4983183385 -1.4404794636
C 2.6190615569 -2.6037538310 -0.3773695124
F 2.6813479842 -3.8405945092 -3.7681534826
F 2.6189647277 0.5601456744 -2.1399943355
F -1.9238777635 2.5841623417 1.7064451878
H -5.9232249926 0.9093665492 1.2356611292
H -6.7136436313 0.4612447043 -0.2855814439
H -5.8108243101 -0.7609100977 0.6324307478
H -4.5751687225 1.7376229109 -0.6632012684
H -3.3748196091 0.9765286611 1.3338589095
H -3.3152321140 -0.6842855063 0.7018610637
H -1.9332319852 -1.1340223639 -1.3991481456
H -1.1417739264 0.2809164896 -2.1478354104
H -3.2710115949 1.2961987771 -2.6979298134
H -3.2185407394 -0.3668993521 -3.3325318790
H -5.2866153234 0.0190198524 -2.2252455278
H 0.3067149997 2.7826121067 2.9494819768
H 0.2386294218 -0.5900302563 -0.6804359402
H 4.5897654131 -0.7046342167 0.8671964860
H 4.2246363295 2.1665637996 3.9910853000
H 2.6605101101 -1.2505518270 -4.0227620481
H 2.6595608558 -4.5695990179 -1.2790668980
H 2.6006915567 -2.9632000947 0.6460206433
