42
CONF84
C 2.9507901316 2.8432412869 -0.5807451470
C 2.0473301915 1.6180055212 -0.7398031903
C 2.1171628369 1.0596972220 -2.1611223969
C 2.4540762120 0.5804659761 0.2907520662
O 1.5318550215 -0.5452063259 0.1872344659
C 1.7577992871 -1.5776163528 1.0091933712
O 2.7096579002 -1.6677538645 1.7607385620
C 0.7342750917 -2.6478032014 0.8291787641
C 1.1848619418 -3.9504662192 0.6246513942
C 0.2764993956 -4.9748381678 0.3748239836
C -1.0874604152 -4.7008129864 0.3300956103
C -1.5458052131 -3.4044502563 0.5442580376
C -0.6419336849 -2.3727464623 0.8022888083
C -1.1416237259 -1.0252051796 1.1952542638
O -0.6558683808 -0.3680628162 2.0975287324
O -2.2066418043 -0.6610064485 0.4694067387
C -2.8171440545 0.6265554141 0.7923480372
C -2.0518897322 1.7946790728 0.1838705383
C -2.7992369128 3.0862426062 0.5248428702
C -1.8822050878 1.6325343034 -1.3261634396
H 2.8894698271 3.2591150805 0.4302537014
H 2.6585313911 3.6234762125 -1.2895582563
H 3.9959499550 2.5795783974 -0.7805879706
H 1.0128032985 1.9162934053 -0.5246706227
H 3.1422497839 0.7508274838 -2.3988923779
H 1.4607731500 0.1938816557 -2.2860358870
H 1.8157958405 1.8226094649 -2.8858314431
H 2.3958920062 0.9773245093 1.3101397997
H 3.4717194084 0.2157877617 0.1072441591
H 2.2511601316 -4.1511446246 0.6396967663
H 0.6361562861 -5.9851999739 0.2102921497
H -1.7980283920 -5.4979878920 0.1381186272
H -2.6094039476 -3.1933620148 0.5414243901
H -2.8868328364 0.7187284740 1.8801153429
H -3.8205413676 0.5561042141 0.3624788367
H -1.0614339204 1.8301437119 0.6541325650
H -3.8002077572 3.0811728018 0.0775618032
H -2.2582619240 3.9522214045 0.1320978736
H -2.9076433787 3.2138050113 1.6069890369
H -1.3327021321 2.4839459770 -1.7405225886
H -2.8605241828 1.5860570455 -1.8196959344
H -1.3294198676 0.7211695981 -1.5733821099
