39
CONF27
C 4.6986997845 -0.3545316594 -2.7683334540
C 4.0509321087 -0.0562188858 -1.4175807936
C 2.5726232552 0.3089718514 -1.5583239077
C 1.9160921007 0.6172245950 -0.2214142080
C 1.5861869129 -0.6112942712 0.6194623284
O 0.2826555567 -0.9761584657 0.1254019345
C -0.3934299859 0.2470327179 -0.0844873519
C -1.3284641461 0.0513844208 -1.2926780352
N -2.4207909988 -0.8535164864 -0.9823985190
C -2.4124995880 -2.2013947919 -0.9446700616
N -3.5818271950 -2.6553870799 -0.5097391783
C -4.2826792966 -1.5084482910 -0.2818275534
N -3.6213386774 -0.3900913324 -0.5500468572
O 0.6000516040 1.2048284342 -0.4341629740
C -1.1533854925 0.6704460187 1.1782744490
C -1.7326899522 1.9297680478 1.3587969546
Cl -1.6252354529 3.1862645250 0.1324521415
C -2.4492217352 2.2593833703 2.5046384676
C -2.5972440597 1.2940079184 3.4904683873
Cl -3.5032704403 1.6981328325 4.9383349216
C -2.0537426597 0.0250820944 3.3535891462
C -1.3425366950 -0.2665859312 2.1969714238
H 4.2016459391 -1.1968129506 -3.2618273141
H 4.6284153811 0.5122498346 -3.4345571984
H 5.7572250607 -0.6073871719 -2.6538427727
H 4.5799413958 0.7713058231 -0.9272079389
H 4.1594027947 -0.9283529746 -0.7604343163
H 2.0233086602 -0.5061140452 -2.0489586969
H 2.4764024595 1.1954908881 -2.1972929571
H 2.5088536495 1.3466475270 0.3422443976
H 1.5364163099 -0.3722843521 1.6898346449
H 2.2526668047 -1.4587694841 0.4528967322
H -1.7540077007 1.0079312998 -1.5972204092
H -0.7351216830 -0.3653139876 -2.1106787553
H -1.5561188267 -2.7898020586 -1.2461870695
H -5.3023788837 -1.4930383568 0.0821346366
H -2.8850693197 3.2443742502 2.6174522143
H -2.1817965724 -0.7225708210 4.1273716962
H -0.9186702099 -1.2564522578 2.0735457351
