45
CONF15
C 2.0197075572 -3.2400940863 0.1176991827
O 2.3186234896 -2.6234321041 1.3941199140
C 2.1986229294 -1.2976319245 1.4907937779
C 2.4852514563 -0.7049719498 2.7130821229
C 2.3451364279 0.6806223567 2.7578067807
O 2.6103442963 1.2837629064 3.9212199493
C 2.4567545753 2.7222843110 3.9864685565
N 1.9535301012 1.4148925614 1.7101884235
C 1.7036316049 0.7273172705 0.5955511457
N 1.2774806559 1.5072245914 -0.4781257489
C 0.6914131453 1.1452651072 -1.6809463896
O 0.2107297362 1.9855913686 -2.4270261851
N 0.6914453858 -0.2152221114 -1.9555132572
S -0.3571985012 -0.8665277129 -3.1106027486
O -0.0203423212 -0.3519551112 -4.4372091995
O -0.3272498048 -2.3096422817 -2.8619242801
C -1.9264562899 -0.1816204951 -2.6236887779
C -2.4281616857 -0.0011492358 -1.3328933516
C -3.6206223232 0.7124960474 -1.5349150809
N -3.8412977378 0.9378510168 -2.8314280926
N -2.8037213524 0.3994282252 -3.4854467508
C -2.7502859434 0.5015388224 -4.9436607651
C -1.8911730544 -0.4201457930 -0.0542689308
N -1.9202736760 0.3603601509 1.0341951927
N -1.3881093122 -0.4330216437 1.9507545034
C -1.2146770419 -0.0374926938 3.3434555793
N -1.0453376319 -1.6276605760 1.4917810473
N -1.3569316059 -1.6401351808 0.2165034650
N 1.8174354973 -0.5892646042 0.4175200503
H 0.9749400290 -3.0671990262 -0.1536673608
H 2.1994925088 -4.3031485439 0.2725994619
H 2.6829989635 -2.8513020811 -0.6595225238
H 2.7953729479 -1.2818969559 3.5737898946
H 2.7178716015 2.9834552451 5.0113171812
H 1.4241270154 3.0065062537 3.7700819912
H 3.1338937981 3.2112873686 3.2821694586
H 1.2351125672 2.5013872864 -0.2920344530
H 1.0329286988 -0.8382235226 -1.2003932976
H -4.3271865294 1.0461866743 -0.7872351224
H -1.9821868888 1.2176193929 -5.2431564125
H -2.5318741467 -0.4743211920 -5.3788235411
H -3.7312518407 0.8455911162 -5.2692422209
H -2.1950209784 0.0543215903 3.8168473719
H -0.6243869137 -0.8100352613 3.8353608228
H -0.6930997107 0.9211048312 3.3757832147
