27
CONF376
C 3.0488219082 -1.2045998307 -0.5603883140
C 4.1948860753 -1.1506360341 0.4539533620
C 4.7544496717 0.2469423682 0.7072866347
O 5.2939826106 0.8561405670 -0.4671171630
C 1.8162173262 -0.4192777069 -0.1011084172
C 0.6820045669 -0.5139688012 -1.0944144755
C -0.5766588163 0.3532189420 -0.7730226775
C -1.2074597501 0.1287539208 0.6366341379
C -2.6547715850 0.6927879605 0.8027556997
F -2.7135425310 1.9641535355 0.3840940141
F -2.9875913032 0.6501215134 2.1016385041
F -3.5357028337 -0.0390972242 0.1143749767
F -0.4234157429 0.7400356189 1.5614257283
F -1.2522917732 -1.1944701539 0.9197118739
F -1.5227250182 0.1065765941 -1.7110155087
F -0.2154991619 1.6601885472 -0.8594136996
F 0.2669272360 -1.8067715052 -1.2464522801
F 1.0976562521 -0.0842313632 -2.3298470893
H 3.3920307313 -0.8285219348 -1.5305412916
H 2.7648032706 -2.2493142602 -0.7225912572
H 3.8605105961 -1.5679933249 1.4139404435
H 5.0096069988 -1.7883665122 0.0930105362
H 5.5899941567 0.1795864100 1.4108934478
H 3.9970987497 0.8982633698 1.1719371806
H 2.0412525765 0.6437973646 0.0366381532
H 1.4631465230 -0.8029128299 0.8620389087
H 4.5686068312 1.0700828310 -1.0633796093
