22
CONF1
C 4.1566176187 1.5200170352 -0.1300023399
C 3.2699425756 2.0727847406 0.7880822931
C 1.9541588468 1.6287757701 0.8261389219
C 1.4916766841 0.6322429615 -0.0355835476
C 2.3857927297 0.0866837058 -0.9615548263
C 3.6983290498 0.5341198795 -0.9938910182
Br 4.9057896034 -0.2310575339 -2.2658651831
C 0.0902102508 0.1489003551 -0.0171968462
C -0.8270019222 0.6798477211 -0.9235778358
C -2.1478388770 0.2465860191 -0.9470019460
C -2.5690417110 -0.7388909984 -0.0540415318
C -1.6683782106 -1.2884131305 0.8535773188
C -0.3548028282 -0.8417807560 0.8601543286
Br 0.8569834046 -1.6279634354 2.1072670305
Br -4.3567602445 -1.3828147980 -0.0273810658
Br -3.3249675960 1.0329476108 -2.2156553166
Br 0.7594090140 2.4206628076 2.0916823754
H 5.1842934458 1.8617266227 -0.1647539442
H 3.6086132572 2.8476226240 1.4657800267
H 2.0420334151 -0.6867514764 -1.6389101206
H -0.5004212679 1.4487555916 -1.6147175244
H -1.9934707627 -2.0580428132 1.5421701209
