45
CONF144
N 4.6098180702 -0.6868548338 -0.8921991937
C 3.1830013804 -0.8732956775 -0.6625290556
C 2.3920909044 0.3845597558 -1.0751691902
C 2.7560577690 1.6396611630 -0.2793565952
C 2.5544974742 1.5147363299 1.2345629219
C 1.1586661985 1.0680739387 1.6598929296
N 0.1291437133 2.0035169337 1.1814112028
C -1.2337718991 1.6475966395 1.5753675121
C -1.8577474275 0.7003523995 0.5417241840
O -1.4169503367 1.0675967720 -0.7495969930
O -1.5021677023 -0.6567655727 0.8365509277
C -2.5646932070 -1.5596289245 0.4164388952
C -1.9888380163 -2.5644361755 -0.5626216963
O -1.4813926728 -1.9433841475 -1.7425365948
C -3.6762078475 -0.6688485099 -0.1372903939
O -4.9403410897 -1.2404310805 0.1842599789
C -3.3902216111 0.6737997242 0.5378846786
O -3.9896822665 1.7996665208 -0.0736161555
C 2.5860986365 -2.0477978524 -1.4251471982
O 1.4387926588 -2.4728955070 -0.8522986605
O 3.0424220897 -2.5336391991 -2.4390967981
H 4.7696897190 -0.5556891960 -1.8874929479
H 5.1089979907 -1.5346032019 -0.6411416079
H 3.0163406963 -1.0657477053 0.4046259541
H 1.3222760770 0.1709876533 -0.9722265252
H 2.5741155976 0.5645753689 -2.1431163058
H 2.1439070570 2.4643519221 -0.6620103738
H 3.8003983841 1.9057144019 -0.4732780724
H 3.2785112074 0.8051965917 1.6534394887
H 2.7788938728 2.4835585604 1.7008294829
H 0.9324847217 0.0775234619 1.2483542658
H 1.1267204092 0.9670160487 2.7585451603
H 0.3468178635 2.9402278626 1.5021663954
H -1.8429787733 2.5583803442 1.5826619296
H -1.2989541001 1.1795728213 2.5693164676
H -0.5881232540 1.5727115516 -0.5731332945
H -2.9391448365 -2.0906787279 1.3027915741
H -1.2035964366 -3.1433950299 -0.0531863587
H -2.7790977077 -3.2571411611 -0.8733116028
H -0.9568493860 -1.1798778218 -1.4529779293
H -3.5687778151 -0.5523531248 -1.2252962822
H -5.6150872260 -0.7466026379 -0.2983490521
H -3.7515495838 0.6354888973 1.5733951102
H -3.4996238143 1.9594973864 -0.8944624244
H 1.0360537884 -3.1504216986 -1.4227777523
