40
CONF6
C -3.6278682463 -2.1575765812 -3.3641449382
C -3.0223535103 -1.2786857461 -2.3070160251
C -1.8102576564 -0.6165884303 -2.5382186497
C -1.2499307467 0.2141200821 -1.5789110693
C -1.8883135846 0.4019663414 -0.3452119399
C -3.1029757876 -0.2501974313 -0.1091085205
C -3.6578348366 -1.0776533531 -1.0788070834
C -1.3404343505 1.2961972032 0.6734676765
C -1.9853888098 2.2629205382 1.4255598675
C -0.9632694043 2.8843327517 2.1597188747
N 0.2346303294 2.3610294864 1.9131101154
N -0.0075538869 1.3888400117 1.0083407121
C 1.0697456219 0.5538335554 0.6065463175
C 0.9016184650 -0.8298337117 0.5848806311
C 1.9598289516 -1.6376925496 0.1920730018
C 3.1700742778 -1.0451495561 -0.1569990350
C 3.3472667558 0.3352687400 -0.1215943954
C 2.2847337065 1.1421114659 0.2605084383
S 4.5534599633 -2.0904717155 -0.6321179259
O 4.0080340213 -3.3673432576 -1.1153796279
O 5.4531850290 -1.2884542482 -1.4739383258
N 5.4248446414 -2.4549390262 0.7614501732
C -1.1144950186 4.0060655502 3.1290970685
F -1.8604078458 3.6395174435 4.2051471564
F 0.0667776825 4.4542964362 3.5936721126
F -1.7584117387 5.0609301320 2.5640648467
H -4.4258062027 -2.7800708295 -2.9528081799
H -4.0557674909 -1.5500342928 -4.1702270959
H -2.8721375779 -2.8071667267 -3.8159183166
H -1.3023724363 -0.7487213161 -3.4897267187
H -0.3188451682 0.7296768395 -1.7927791303
H -3.6047096144 -0.1195592011 0.8448621322
H -4.5978683592 -1.5822325470 -0.8740768864
H -3.0358043451 2.5085595353 1.3974358479
H -0.0448109827 -1.2709650015 0.8751678871
H 1.8438403494 -2.7151803593 0.1646690574
H 4.2957698459 0.7772175053 -0.4051770464
H 2.3894209424 2.2205445099 0.2804301563
H 5.7978591946 -1.6082706293 1.1879965078
H 4.8465280131 -2.9606421256 1.4306675183
