32
CONF24
C 3.3867466572 2.0442563742 0.3381993658
C 2.8369208255 0.9294733080 -0.5088485176
O 3.1772226443 -0.2325657660 -0.3474280604
C 1.8523024687 1.3356359427 -1.5835037501
C 0.9532502366 0.2019779045 -2.0854276822
C -0.0633541155 -0.2362040575 -1.0572929332
C -1.1250065180 0.6137111469 -0.7306184727
C -2.0528037648 0.2211580108 0.2314076255
C -1.9370818477 -1.0169656446 0.8753301009
C -0.8761902785 -1.8655978760 0.5447556871
C 0.0559285155 -1.4717504178 -0.4203266878
O -0.8455445718 -3.0500546914 1.2241247341
C 0.2342683799 -3.9446647776 0.9288334895
O -2.8435413578 -1.4158348394 1.8207265609
O -3.1353164897 0.9537990163 0.6388984313
C -3.3278185323 2.2402063645 0.0359757050
H 2.5981293682 2.3659096030 1.0304151819
H 4.2548869356 1.7113872386 0.9088823795
H 3.6375495859 2.9132195790 -0.2786215748
H 1.2604219121 2.1862499594 -1.2257732434
H 2.4649943216 1.7299094543 -2.4089826394
H 0.4349709509 0.5527342100 -2.9850893938
H 1.5739825976 -0.6499529017 -2.3772534534
H -1.2208142165 1.5700126493 -1.2320167214
H 0.8841987511 -2.1195540520 -0.6776999442
H 1.2020718266 -3.4832525869 1.1583426117
H 0.2135178363 -4.2551614332 -0.1224100518
H 0.0806481257 -4.8129318697 1.5704229325
H -3.4993057870 -0.7083351566 1.9114681521
H -4.2234925452 2.6537656150 0.4997766374
H -3.4803482366 2.1446605765 -1.0450838363
H -2.4713930800 2.8947586091 0.2336612586
