44
CONF126
C -4.6856455543 1.2719169999 1.3256814341
C -3.5989320142 0.2288900661 1.2627167861
C -4.0505746527 -1.2092018671 1.4765682830
O -3.1337062011 -1.9860324828 0.6756165328
C -2.4142054428 -1.0850354185 -0.1722231954
O -3.0800704490 0.1533646272 -0.0892008107
C -2.5330118982 -1.6075562957 -1.6194659868
N -1.6306136868 -0.9230177605 -2.5267023397
C -0.3962268755 -1.3070710690 -2.9118992833
N 0.1811651275 -0.3502298182 -3.6281448536
C -0.7691508474 0.6275497088 -3.6390808190
N -1.8825256635 0.3300624042 -2.9811009128
C -0.9486039919 -0.9532426654 0.2577059379
C -0.3765591089 0.3225995641 0.3082086059
C 0.9636935762 0.5281880589 0.5977929399
C 1.7743480975 -0.5781157521 0.8320759255
C 1.2518754566 -1.8645413302 0.7926716417
C -0.0970769905 -2.0342578913 0.5041497539
Cl -0.6578936418 -3.7024150276 0.4125148989
O 3.1053808087 -0.4623830258 1.1724142143
C 3.8769483316 0.4853236953 0.5209853540
C 4.8306487691 1.1522428055 1.2818675502
C 5.6880158750 2.0594361918 0.6680835108
C 5.5650860004 2.2855748813 -0.6974961104
C 4.6151146835 1.6202105777 -1.4644931180
C 3.7657667533 0.7072130721 -0.8496332482
Cl 6.6411905533 3.4416244556 -1.4775417669
H -4.2816314291 2.2624153582 1.1007799412
H -5.1101748316 1.2955680586 2.3337228868
H -5.4824101634 1.0372751736 0.6135958386
H -2.7745320639 0.4764498314 1.9477777168
H -3.9727398735 -1.5317171655 2.5184337309
H -5.0734788979 -1.3617583265 1.1090206579
H -2.2795686275 -2.6691653388 -1.6342469451
H -3.5644210968 -1.4733534295 -1.9540312083
H 0.0211272458 -2.2736442036 -2.6593412427
H -0.6450239966 1.5752843097 -4.1479646143
H -1.0143887981 1.1768797337 0.1127581041
H 1.3725964217 1.5316470750 0.6344980557
H 1.8970254901 -2.7164174541 0.9719403624
H 4.9009162407 0.9589794107 2.3467909029
H 6.4352527218 2.5857699431 1.2508916191
H 4.5403130452 1.8012617509 -2.5307264586
H 3.0267005986 0.1734287696 -1.4374926630
