63
CONF58
C 1.4225398356 -1.0724914946 -0.0182096529
C 0.2530827470 -1.5489923961 -0.8728704722
N -0.1311161899 -0.5324104843 -1.8611496065
C 0.9995845134 -0.2531983659 -2.7546208457
C 2.1963549336 0.2884782509 -1.9780518913
C 2.6118906374 -0.7205646085 -0.9083804110
N 3.7674303803 -0.2618793411 -0.1321054734
C 5.0194392347 -0.8670250118 -0.1120879298
C 5.5163663064 -1.9904529719 -0.7576844319
C 6.8488664808 -2.3383065853 -0.5148974217
C 7.6535281416 -1.5863762697 0.3439431461
C 7.1550445801 -0.4540811447 0.9946991667
C 5.8350962476 -0.1105946499 0.7530616203
N 5.0515048942 0.9256636613 1.2246792993
C 3.7722302109 0.8589465845 0.6945829944
O 2.8434616150 1.6344312117 0.9150778157
C -1.3024427989 -0.9550390487 -2.6433110370
C -2.5923947470 -0.9793556518 -1.8247984131
C -3.0004164385 0.4051683775 -1.3071553112
C -3.7942710018 0.3270056920 0.0095105732
C -2.8931616629 -0.1633987020 1.1337026394
C -3.0871185506 -1.4166493193 1.7166315031
C -2.2277706830 -1.8961292197 2.7050895196
C -1.1741394911 -1.0916513403 3.0978763109
C -0.9506428531 0.1642180464 2.5574028146
C -1.8196984441 0.6190158540 1.5718199839
F -0.3213207648 -1.5501752378 4.0544591350
C -4.4714963963 1.6295671596 0.3993406282
C -3.9903590553 2.8789323990 0.0001119403
C -4.6148266951 4.0571257567 0.4083882332
C -5.7282931046 3.9614393855 1.2222592551
C -6.2430348809 2.7460562704 1.6419411994
C -5.6022191391 1.5848806754 1.2228745619
F -6.3477124687 5.1055397192 1.6222147493
H 1.7038841778 -1.8598085163 0.6904967827
H 1.1203956294 -0.1916013912 0.5552870049
H -0.5969054818 -1.7540295902 -0.2146387806
H 0.5210153967 -2.5027039114 -1.3751123403
H 1.3041242162 -1.1664267179 -3.3083587724
H 0.6809161961 0.4854186302 -3.4988409703
H 1.9292663977 1.2376444290 -1.5018054055
H 3.0306505554 0.4711180525 -2.6646180443
H 2.9400542196 -1.6357441191 -1.4153177107
H 4.9027194871 -2.5828116734 -1.4269747879
H 7.2620981562 -3.2123714394 -1.0075081489
H 8.6837737696 -1.8830814858 0.5108851659
H 7.7742326464 0.1350172736 1.6628190696
H 5.3372736302 1.6482256386 1.8664242210
H -1.1343394863 -1.9509507182 -3.0991972156
H -1.4204884987 -0.2417882058 -3.4699939762
H -3.3905622949 -1.3924466168 -2.4526161730
H -2.4831599919 -1.6749638433 -0.9856964923
H -2.0974501420 1.0043459449 -1.1464626130
H -3.6021588505 0.9240980851 -2.0632781146
H -4.5878569888 -0.4207144770 -0.1179038804
H -3.9168190915 -2.0372647488 1.3900562356
H -2.3692874479 -2.8719953866 3.1570327098
H -0.1132848250 0.7638112613 2.8984330866
H -1.6529668642 1.6007593974 1.1377155514
H -3.1190245179 2.9506227048 -0.6419740372
H -4.2468793928 5.0294574215 0.0986700878
H -7.1231338648 2.7142660464 2.2752986288
H -5.9900687502 0.6212582597 1.5428356054
