78
CONF463
C -0.7436929132 0.1116224171 -0.7957075653
C 0.2179492459 0.8020883631 -1.7516690388
O -0.2691677361 0.3989485673 -3.0787674415
C -0.9845281472 -0.7532050201 -2.9902572600
O -1.4173502435 -1.3037355104 -3.9754045967
C -1.0489893508 -1.1762836352 -1.5425802084
C -2.3049214376 -1.8619528744 -0.9983200381
C -3.5966872245 -1.1308830097 -1.3479871608
C -4.2530992995 -1.4449482472 -2.5397885443
C -5.4118706433 -0.7561276283 -2.8899071865
O -6.1461852030 -0.9666612873 -4.0254273246
C -5.6549052633 -1.9381565099 -4.9581316942
C -5.9315602235 0.2443560972 -2.0601349055
O -7.0691551752 0.9244259201 -2.3910887404
C -5.2794927405 0.5449246572 -0.8596055390
O -5.8625158040 1.5233101280 -0.1077146220
C -5.2219722930 1.8652967659 1.1265401871
C -4.1185428489 -0.1457210101 -0.5069874377
C -2.1302724687 -2.0075079766 0.5080489648
C -2.9514397074 -2.9560969246 1.1531689994
C -2.8507170403 -3.0726723164 2.5162145943
C -1.9817034620 -2.2769001041 3.2583385309
O -2.1219648552 -2.5573745150 4.5944510028
C -2.9290608205 -3.7520699727 4.6444216392
O -3.5667684317 -3.8854391037 3.3558886260
C -1.1818890045 -1.3380896381 2.6609081794
C -1.2555524269 -1.2055445842 1.2555494096
C -0.3089335667 -0.2009939843 0.6224094893
O 1.0289675710 -0.7807915103 0.6176227181
C 1.9820631373 -0.0559277207 1.3189823453
O 2.3091940649 1.1154424876 0.5523256131
C 3.2774827091 1.9125540903 1.2273069733
C 3.5276514063 3.1813502132 0.4322335647
O 4.5775563041 3.9229065425 1.0825605612
C 5.7738265314 3.1873383147 1.2705059141
O 5.5634930246 1.9678125208 1.9784568238
C 4.5906874332 1.1405166172 1.3259197533
C 4.3700315694 -0.1266511372 2.1260058971
O 5.5350342299 -0.9419481309 2.2503060276
C 3.2237204326 -0.9283662959 1.4906231061
O 2.8710382472 -2.0319255949 2.3151349585
C 6.5041781894 2.9612022649 -0.0300550994
C 6.4327732386 3.6898242448 -1.1867886258
C 7.3489479460 3.2504785459 -2.1816818068
C 8.1183902985 2.1982039302 -1.7687618284
S 7.7274712532 1.7255271858 -0.1474072345
H -1.6650899292 0.7047322392 -0.7341276518
H 1.2432172973 0.4407277876 -1.6455226465
H 0.1934510844 1.8918084407 -1.7164961874
H -0.1995883687 -1.8673574448 -1.4111109541
H -2.3676983489 -2.8653733588 -1.4345113466
H -3.8479457039 -2.2120475605 -3.1867576569
H -4.6552646534 -1.6643165908 -5.3145105072
H -6.3591318451 -1.9321028366 -5.7902117925
H -5.6268903382 -2.9351402148 -4.5038335312
H -7.3746107947 0.5830190911 -3.2448187441
H -4.2021523442 2.2300882924 0.9539948014
H -5.8272206865 2.6612274288 1.5614878559
H -5.1959814722 1.0075303212 1.8094283893
H -3.6275063595 0.0656398264 0.4343476814
H -3.6458520476 -3.5647774459 0.5829373969
H -3.6927363925 -3.6426858209 5.4167411579
H -2.2794568831 -4.6209195178 4.8165252198
H -0.5155465184 -0.7125780824 3.2454839670
H -0.2861098327 0.7136294801 1.2273015089
H 1.6037235675 0.2623499884 2.3083729216
H 2.9304278748 2.1706460338 2.2415995915
H 2.6535221009 3.8363646108 0.4247919875
H 3.8011898805 2.9243753655 -0.6004810744
H 6.3783969656 3.7999725774 1.9478526627
H 4.9277469271 0.8863804347 0.3066002074
H 4.0894394008 0.1400416036 3.1533128756
H 5.8687175025 -1.1290880171 1.3610491317
H 3.5356074105 -1.2678217023 0.4877100711
H 3.6968409282 -2.4766945905 2.5532394550
H 5.7429262834 4.5153782825 -1.3168687706
H 7.4318045653 3.6963601440 -3.1659469504
H 8.8842524512 1.6659476278 -2.3173291923
