56
CONF26
C -1.2933253545 -4.6350236815 1.5835920549
C -0.8196382954 -3.2621334260 2.0589841633
C -1.0805600064 -3.0163667489 3.5450422602
N -1.3726101584 -2.1803431391 1.2244862686
C -2.6939686169 -1.7838649099 1.1548455602
C -3.8522471069 -2.3427906844 1.7045444603
C -5.0656937828 -1.7217113783 1.4348607483
C -5.1397309495 -0.5720779871 0.6281663999
C -3.9942079349 -0.0136946312 0.0819032888
C -2.7527668764 -0.6075564655 0.3523675250
C -1.4165491427 -0.3083468180 -0.0604741735
C -0.5975640037 -1.2814113039 0.4999829004
C 0.8493645573 -1.4008400546 0.3965000691
C 1.6533005117 -0.3344937906 0.4821313616
C 3.1283735902 -0.3264292180 0.2278230218
C 3.4784293492 0.5706486051 -0.9756021067
C 2.9905637652 2.0073128569 -0.8611986998
C 3.4327103266 2.8227695902 -2.0737009164
C 2.9146408540 4.2335502973 -2.0395260277
O 2.2975681235 4.7311971880 -1.1150204066
O 3.2208826630 4.9111786050 -3.1606088157
O 3.5236573645 2.5533662433 0.3548259870
O 3.6766319752 -1.6334914171 0.0395329227
C -1.0191102944 0.7634486853 -0.9824062848
C -0.2824868059 0.4811024380 -2.1426060154
C 0.0957169336 1.4898364331 -3.0215802383
C -0.2787524793 2.7900959133 -2.7263007973
C -1.0187894672 3.1180334168 -1.6046439686
C -1.3860123151 2.0934995146 -0.7356070434
F 0.1022102284 3.7867169096 -3.5735182790
H -0.7681143751 -5.4114471157 2.1474658096
H -2.3660712586 -4.7738596882 1.7387148661
H -1.0741523789 -4.7697294557 0.5204655307
H 0.2619891632 -3.2118633908 1.9077871472
H -2.1418247783 -3.0930932977 3.7941104909
H -0.7232669655 -2.0247570105 3.8380812991
H -0.5414599397 -3.7661255042 4.1314375986
H -3.8275578116 -3.2345258280 2.3177854181
H -5.9757832771 -2.1403428264 1.8531358354
H -6.1070156304 -0.1198739534 0.4319906030
H -4.0529168447 0.8723486812 -0.5435007779
H 1.2743885009 -2.3840623253 0.2014625225
H 1.2163099060 0.6325638549 0.7227505713
H 3.6357740881 0.0725510532 1.1149601800
H 4.5690935170 0.5656518954 -1.0945389772
H 3.0377167997 0.1262406459 -1.8778450887
H 1.8915274853 2.0244482373 -0.8210239643
H 4.5284289323 2.8636040409 -2.1300918134
H 3.0889985472 2.3535247940 -3.0035064074
H 2.8713194608 5.8155986063 -3.0787010756
H 3.1391105713 3.4373383956 0.4445191812
H 3.3347274593 -1.9831798288 -0.7950414618
H -0.0000299981 -0.5445875884 -2.3562696304
H 0.6677576001 1.2762849562 -3.9182896398
H -1.2887501860 4.1506246711 -1.4109448515
H -1.9502348581 2.3344866531 0.1599501218
