56
CONF2
C -2.3663077474 -0.5898128125 -1.3653780627
C -2.4592581799 0.1947676671 -0.0321986943
C -3.1527680080 1.5489082284 -0.2876089097
C -4.6140912355 1.3862026795 -0.6998561305
C -5.3923523281 0.5009965462 0.2435125347
O -6.6219720142 0.5861309655 0.3337729197
C -4.6418074238 -0.4763627039 1.0125246138
C -3.3023711685 -0.6376589391 0.9235402982
C -2.6106798477 -1.6759206825 1.7648850555
C -1.2357512774 -2.0761668216 1.2361056203
C -0.3295587659 -0.8465814731 1.1032990191
C -1.0852573772 0.4271241252 0.6583462160
C -0.1658356042 1.4929607061 0.0065137919
C 1.2453834828 1.4104102090 0.5970277452
C 1.9891189675 0.0551256898 0.4566087460
C 0.9869036985 -1.1450025114 0.3781305362
C 0.9913825913 -1.6110696754 -1.0817270873
C 2.4702908905 -1.4610391330 -1.4350427563
C 2.8344403672 -0.0771768887 -0.8898313986
C 4.3291110782 0.0992593233 -0.6522469770
O 5.0597341580 -0.8250254801 -0.3334086211
C 4.9136797341 1.4857926278 -0.8076475671
O 6.2567963850 1.5306152054 -0.3708973158
O 2.4147154250 0.9577166189 -1.8041853119
C 2.8791456233 -0.1147102566 1.6972589291
O -0.1952262296 1.4371038908 -1.4136175689
F -1.4511209990 1.0625772882 1.9138522804
H -1.9079311038 0.0334046328 -2.1323421831
H -3.3714092022 -0.8760112266 -1.6848102197
H -1.7839902199 -1.5042990166 -1.2716330224
H -3.1146587067 2.1456199776 0.6292432449
H -2.6086732124 2.0945300088 -1.0637603129
H -4.6945554258 0.9337578066 -1.6979413293
H -5.1184530402 2.3556409901 -0.7593549842
H -5.2222443546 -1.1159691666 1.6751369660
H -3.2628064126 -2.5476211649 1.8802859129
H -2.4898130103 -1.2483909246 2.7713000850
H -0.7689738415 -2.7821597824 1.9308167447
H -1.3387626136 -2.6054492138 0.2850768917
H -0.0228696207 -0.5929168689 2.1270913673
H -0.5868097488 2.4615945948 0.3114512665
H 1.8483925591 2.2311622813 0.1958788776
H 1.1382758375 1.6110405883 1.6688821697
H 1.4426071041 -1.9659126011 0.9500971112
H 0.6384754493 -2.6399587484 -1.1967608023
H 0.3822630725 -0.9661640449 -1.7191527659
H 3.0644533052 -2.2117949176 -0.9033470278
H 2.6975627499 -1.5443054869 -2.5031680530
H 4.2964171861 2.1999718497 -0.2426890508
H 4.8335284772 1.7732474759 -1.8674959811
H 6.5077155135 0.6085747846 -0.1883760097
H 2.7057180596 0.7097286306 -2.6937458334
H 2.2405355285 -0.1828416723 2.5837177312
H 3.4783119241 -1.0271302111 1.6411443135
H 3.5506768631 0.7404334815 1.8373609149
H 0.7206732071 1.2730531277 -1.7146379103
