71
CONF261
C 5.0666584041 -1.9971453302 -2.3475032639
O 4.2034577519 -2.8226149240 -1.5559945225
C 3.5738788581 -2.2264477375 -0.5022762668
C 2.7115244496 -3.0615078511 0.2481557496
O 2.6261229157 -4.3516434803 -0.1839837291
C 1.7230517089 -5.2181366275 0.5147983164
C 2.0239547993 -2.5420974511 1.3388199006
C 2.1631470544 -1.1942501453 1.7083628913
C 1.3638131739 -0.6380793885 2.8587963978
C -0.1385891715 -0.6164499700 2.5331776606
N -0.8951871357 0.3105226230 3.3800354586
C -0.8419164024 -0.0894077141 4.7874752256
C -2.3016851347 0.3996582426 2.9553113855
C -2.4907254101 0.8603124952 1.5094106549
C -1.7467255470 2.1547177282 1.1939886075
C -1.8048355276 2.5601423472 -0.3094341002
C -3.1973364873 2.8915702331 -0.6134725435
N -4.2989950691 3.1803005196 -0.8173190966
C -0.9318703887 3.8384491280 -0.5906387392
C -1.3013856475 5.0259462831 0.2987424815
C -0.9885665379 4.2365696959 -2.0654668455
C -1.3275153947 1.3925920379 -1.1824172585
C -2.1448362071 0.8091350599 -2.1568789196
C -1.7025368554 -0.2750033460 -2.9085461389
O -2.4336052071 -0.8960470025 -3.8744854436
C -3.7493766251 -0.3877523163 -4.1327031934
C -0.4138380343 -0.8081235531 -2.6805193091
O -0.0706312855 -1.8814744593 -3.4455443294
C 1.1980045411 -2.4913324751 -3.1717663838
C 0.3980906308 -0.2202543929 -1.7178110100
C -0.0528811356 0.8765460457 -0.9809204948
C 3.0103224752 -0.3849706526 0.9623348953
C 3.7156036315 -0.8946695591 -0.1338412220
H 4.5118979984 -1.1639917683 -2.7956850150
H 5.4548954982 -2.6450292976 -3.1339345236
H 5.8968382936 -1.6062433736 -1.7471270595
H 1.7849631532 -6.1800510485 0.0052194845
H 2.0215954919 -5.3362000230 1.5630731234
H 0.6960784646 -4.8373441056 0.4637714552
H 1.3690708394 -3.1818456023 1.9193822929
H 1.6914268675 0.3881744382 3.0603537932
H 1.5500698169 -1.2282857716 3.7635059653
H -0.2416605652 -0.2935530403 1.4925637749
H -0.5489369919 -1.6456437830 2.5921065177
H -1.4386451586 0.6060365842 5.3867406457
H -1.2367017671 -1.1112437996 4.9514944877
H 0.1864234111 -0.0566906182 5.1579711142
H -2.7953509673 1.1133058370 3.6279485408
H -2.8174730486 -0.5736279304 3.0830447259
H -3.5670254935 1.0026907554 1.3494546081
H -2.1836676582 0.0719840180 0.8143856544
H -2.1558856473 2.9653861420 1.8046630480
H -0.6889624990 2.0610557786 1.4587689974
H 0.0921134719 3.5282316645 -0.3497528423
H -1.1359277319 4.8221299921 1.3589827181
H -2.3505032542 5.3119542159 0.1587008451
H -0.6840296011 5.8869588138 0.0252868931
H -0.3066593058 5.0716171176 -2.2505466001
H -1.9984017319 4.5617787661 -2.3425828556
H -0.7028063542 3.4079841705 -2.7193379459
H -3.1397177297 1.2022442092 -2.3259674536
H -4.3846090464 -0.4710332738 -3.2429345014
H -3.7094302110 0.6569391824 -4.4628662984
H -4.1528952744 -1.0104726385 -4.9314294847
H 1.2405687239 -2.8544660113 -2.1383652437
H 2.0214811326 -1.7888347946 -3.3469380507
H 1.2781991705 -3.3309989486 -3.8627917117
H 1.3900443037 -0.6092863293 -1.5181787737
H 0.6114183225 1.3030352245 -0.2367406532
H 3.1293066803 0.6619992543 1.2259349058
H 4.3683072018 -0.2377179794 -0.6961015837
