51
CONF172
C -2.2218062407 -0.5315612561 3.2738335157
N -2.2695332614 -1.5872117658 2.2563435104
C -2.2875892479 -2.8937433224 2.9382386146
C -2.4366351339 -4.0439114934 1.9532942198
C -1.2919136557 -4.0139022276 0.9469816563
C -1.2180710256 -2.6383669958 0.2903573229
C -1.1271173055 -1.5061527304 1.3206624452
C -1.0802072197 -0.1417829558 0.6251667822
C 0.1031901161 -0.0262296483 -0.3409576458
N 0.3788264960 1.3747444306 -0.6784575845
C 0.7561859299 2.2568210042 0.3587091517
C 1.2405944256 1.8015230274 1.5913727804
C 1.5597124234 2.7043895779 2.6024522957
C 1.4356148571 4.0748913138 2.3953248769
C 0.9920432439 4.5433623862 1.1608542070
C 0.6374475429 3.6422866826 0.1614767800
S -0.0359993456 4.2187639070 -1.3832873193
C 0.7255195292 3.0059778463 -2.4390588185
C 0.8329746127 1.6858788855 -1.9766662669
C 1.4024746883 0.7187199289 -2.8151794790
C 1.7976390181 1.0530726297 -4.1120959881
C 1.6717771292 2.3710191767 -4.5680430363
C 1.1597490190 3.3420805889 -3.7183125685
S 2.4971010617 -0.1190928896 -5.2520973587
C 2.4660371528 -1.6915450342 -4.3289218460
H -3.0011665097 -0.7208131481 4.0183884883
H -2.4165303445 0.4515826880 2.8386392579
H -1.2481412428 -0.4937794047 3.8008069257
H -3.1243974834 -2.8914160795 3.6462128808
H -1.3593049692 -3.0386461449 3.5303862616
H -2.4535016347 -4.9918912687 2.5031802772
H -3.3963576277 -3.9482239079 1.4290085838
H -1.4154164930 -4.7928233809 0.1860245307
H -0.3461611950 -4.2177810354 1.4682696553
H -0.3489673888 -2.5939370621 -0.3747026734
H -2.1119465169 -2.4708481675 -0.3269150113
H -0.1768751460 -1.6291240913 1.8887290005
H -0.9991804135 0.6510112899 1.3702031123
H -2.0150591825 0.0233609913 0.0752059365
H 0.9950565574 -0.5292932042 0.0676901227
H -0.1466182026 -0.5314394794 -1.2748898469
H 1.3590011638 0.7392489796 1.7716088972
H 1.9165078416 2.3261598721 3.5551190490
H 1.6887783847 4.7778751117 3.1817736476
H 0.9005703126 5.6090558266 0.9750446283
H 1.5432698627 -0.2872322338 -2.4455444877
H 1.9816077025 2.6394117892 -5.5729916985
H 1.0737248595 4.3687708046 -4.0605361127
H 1.4443651263 -1.9645432721 -4.0526210063
H 2.8643118308 -2.4407367578 -5.0169709682
H 3.1044146922 -1.6439797598 -3.4431092954
