29
CONF61
C -4.7922472614 0.2394086808 -0.2713909297
C -4.0745813617 -0.8876070878 -0.9772745622
O -2.7136847907 -1.0831753807 -0.4553720708
P -1.5473771280 -0.0418558789 -0.7697656574
S -1.4272322933 0.6811191817 -2.5602277617
O -1.5833381128 1.0950668354 0.3436040590
C -1.5902599915 0.7494472480 1.7788109777
C -2.0518729127 1.9725465611 2.5288381439
O -0.3553922559 -1.0925880055 -0.3009546747
C 0.9643826062 -0.7767401068 -0.2777183441
N 1.3414427631 0.4849455107 -0.3604875630
C 2.6228291836 0.7955209605 -0.3215057568
Cl 3.0186453349 2.4913472180 -0.4446304099
C 3.6224028669 -0.1671099618 -0.1855968423
Cl 5.3068288357 0.2473370446 -0.1300104866
C 3.2367564018 -1.5014586559 -0.0935086849
C 1.8903422145 -1.8189595959 -0.1432654139
Cl 1.3639326534 -3.4697407890 -0.0374302525
H -4.3354459395 1.2086077945 -0.4923081821
H -5.8298192597 0.2649760001 -0.6189638142
H -4.7931857532 0.0831165734 0.8112343434
H -4.5554163520 -1.8499941492 -0.7942120828
H -2.2620007270 -0.1001668479 1.9338294207
H -0.5693397663 0.4632660355 2.0515667789
H -3.0699538227 2.2451125190 2.2377120736
H -2.0426480845 1.7546980027 3.6010306184
H -1.3855146739 2.8187084018 2.3409180912
H 3.9819307429 -2.2812076606 0.0120042617
H -4.0046466032 -0.7198655638 -2.0564702598
