54
CONF841
C -4.0923530496 0.2907462874 2.8081815514
N -3.9617530920 1.1269251692 1.6060710312
C -4.6184198309 2.3192078991 1.4227714156
C -5.5077835287 2.7665912131 2.5511712921
O -4.4699705616 2.9699747047 0.3891788864
C -3.1505359910 0.6446856177 0.5492678009
C -1.7799697691 0.9183389937 0.5173021039
I -0.9598747680 2.1284258516 2.0448990122
C -0.9571996383 0.4169555878 -0.4900962863
C 0.5147487031 0.7452685773 -0.5288535788
O 0.9219361327 1.7354734414 -1.1403906137
N 1.3085701339 -0.1180627594 0.1294657201
C 2.7601070899 -0.0663088289 0.0099784756
C 3.4039214109 0.9351075521 0.9870951959
O 2.9356815584 2.2339156217 0.8366297758
O 4.8139904968 0.9381706252 0.7362342976
C 5.4304278977 -0.3150426185 1.0652406701
C 6.9249974715 -0.1137769139 0.9018857474
O 7.4287978053 0.8663302001 1.8091029390
C 4.8791485976 -1.3989038023 0.1404662609
O 5.4566816635 -2.6426935025 0.5243853720
C 3.3555156820 -1.4544542292 0.2553039079
O 2.8102806956 -2.4512370009 -0.6083237873
C -1.5275859276 -0.3674143874 -1.4923226335
I -0.2829818656 -1.2026501275 -2.9852763186
C -2.9001283467 -0.6428539113 -1.5172764146
N -3.4705646462 -1.4207005356 -2.5437643294
C -3.7146015095 -0.9078059662 -3.7968463357
C -4.3606142387 -1.8679393534 -4.7595154861
O -3.3864754828 0.2320571389 -4.1038028486
C -3.6917107836 -0.1262939429 -0.4837466125
I -5.7663189621 -0.5117198464 -0.4903182337
H -3.9765472805 0.8955327627 3.7105604542
H -3.2965432307 -0.4562176610 2.7930391272
H -5.0596744121 -0.2238423475 2.8313722734
H -6.2279697442 1.9880981718 2.8212171687
H -4.9123387033 2.9907006484 3.4427568599
H -6.0366438270 3.6658701501 2.2378230725
H 0.8846126721 -0.9221094094 0.5720644841
H 3.0092368802 0.2671078366 -1.0093254507
H 3.2287867873 0.6244038293 2.0308675875
H 2.5263555123 2.3271447426 -0.0412435131
H 5.2039795286 -0.5799521078 2.1120680368
H 7.4430135601 -1.0496661375 1.1246565896
H 7.1355873798 0.1654654880 -0.1421605513
H 6.9423474622 1.6839078921 1.6394729241
H 5.1459573765 -1.1477497554 -0.9014973323
H 5.0008623539 -3.3330882571 0.0230463608
H 3.1004273999 -1.7848393899 1.2721582662
H 2.9435993440 -2.1673352095 -1.5246866343
H -3.8941983245 -2.3018394942 -2.2865763966
H -5.0006938013 -1.3075362063 -5.4423510015
H -3.5683441273 -2.3450573910 -5.3475315072
H -4.9377739411 -2.6493145971 -4.2598285836
