47
CONF71
C -6.4414302199 -1.3870518704 -1.6162994420
O -5.5984049876 -1.4030668655 -0.4281242828
P -5.9452656793 -0.4610032627 0.8145685958
S -6.3573764402 1.4008726662 0.4389751739
O -7.0585113965 -1.3233680429 1.5697381591
C -7.7461739957 -0.7729837924 2.7295273507
O -4.6576177259 -0.7272663008 1.7632364400
C -3.5040031185 0.0598775926 1.6643355808
C -3.2610564937 0.9997296288 2.6551028535
C -2.0868910330 1.7431457681 2.6092663861
C -1.1794808576 1.5560485228 1.5622608084
C -1.4465847521 0.6129725418 0.5667759035
C -2.6083554390 -0.1481563036 0.6232799453
S 0.2655158293 2.6111926023 1.5211150091
C 1.4748362961 1.5882589866 0.6896093119
C 2.0982625481 2.0736769550 -0.4602453485
C 3.0864348471 1.3217718008 -1.0903448487
C 3.4259772337 0.0837261666 -0.5623677776
C 2.8112250702 -0.4174001452 0.5793187524
C 1.8380745520 0.3433808717 1.2123192585
O 4.3641521793 -0.7345000341 -1.1908949085
P 5.9027217633 -0.2808683498 -1.4398508948
S 6.6989211799 0.8166593744 -0.0485486855
O 5.7922781701 0.3415821136 -2.9063611684
C 6.9500352615 0.9843208237 -3.5151598787
O 6.5841315866 -1.6932318779 -1.7438970588
C 6.9722623578 -2.5684799213 -0.6464187966
H -5.9772786987 -2.0855139700 -2.3116307886
H -6.4637685598 -0.3818269491 -2.0441403529
H -7.4517578017 -1.7194219290 -1.3641344091
H -8.2956171944 0.1274862093 2.4444916072
H -8.4347857100 -1.5511720909 3.0567431223
H -7.0265093387 -0.5479690571 3.5214072750
H -3.9763937512 1.1357100475 3.4591040958
H -1.8790149282 2.4671299255 3.3908261143
H -0.7509587793 0.4641934084 -0.2519763184
H -2.8205738745 -0.8905408484 -0.1385955187
H 1.8088674401 3.0343162035 -0.8728359427
H 3.5708177387 1.6877630268 -1.9891655787
H 3.1073913173 -1.3853406472 0.9691233357
H 1.3604449247 -0.0313351645 2.1117098958
H 7.2835457625 1.8184907082 -2.8929832230
H 7.7556380504 0.2575661545 -3.6476407064
H 6.6056553437 1.3465979601 -4.4830557037
H 7.7057110810 -2.0664417254 -0.0109007529
H 6.0914721267 -2.8526212819 -0.0642649323
H 7.4134370357 -3.4469094277 -1.1159516604
