54
CONF17
C -6.3274251486 1.8459210476 -1.2548027370
C -5.1867083880 0.8837300310 -0.9496467239
C -4.7464102451 0.8805065959 0.5610686590
N -3.3530305764 0.4767889399 0.5542263497
C -2.6313051257 0.4408882155 -0.7305356371
S -3.6517269019 1.4383197961 -1.8768041445
C -1.4056444016 1.0828038989 -0.0057741804
C -2.2733731628 0.9736628904 1.2698339896
O -2.1320163237 1.2422788338 2.4404090572
N -0.1150051464 0.4685448061 -0.0463763595
C 0.1001589833 -0.7583916989 0.4717615592
O -0.7944438242 -1.4430258383 0.9657224524
C 1.5390002450 -1.2897263752 0.4934588840
C 2.1142133477 -1.0939862821 1.8953848796
C 2.4055509201 -2.2072321256 2.6838010405
C 2.9168048529 -2.0385683004 3.9683388325
C 3.1416431160 -0.7588633152 4.4694397322
C 2.8534196957 0.3539994880 3.6815996788
C 2.3411884481 0.1894213087 2.3981896301
C 2.5189080817 -0.7000944269 -0.4986450960
O 2.5380267351 0.4390461700 -0.9120366400
O 3.4418546576 -1.6337751987 -0.8302990045
C 4.5208519256 -1.2105821889 -1.6340546681
C 4.4898071511 -1.5047875862 -2.9872867565
C 5.5851584248 -1.1429981722 -3.7691485425
C 6.6781660680 -0.4998066151 -3.1921961095
C 6.6817697587 -0.2158640375 -1.8274090714
C 5.5950606658 -0.5728993222 -1.0331720642
C -4.9116704688 2.2577362064 1.1961395218
O -4.1135074382 3.1633146416 1.1095128401
O -6.0858380556 2.3431466393 1.8418654427
C -5.5640396349 -0.5424919500 -1.3535209413
H -6.5852543618 1.7816226754 -2.3153499741
H -6.0683072467 2.8828729569 -1.0233583354
H -7.2109929656 1.5624026952 -0.6742376790
H -5.3829886913 0.1669679884 1.0954554389
H -2.4541562705 -0.5691297262 -1.1093266255
H -1.3117016774 2.1388688927 -0.2743437598
H 0.6689799995 0.9669609892 -0.4512412257
H 1.4650516823 -2.3624748276 0.3040854783
H 2.2310264302 -3.2047544396 2.2920512093
H 3.1394480195 -2.9097369937 4.5764167653
H 3.5405819897 -0.6283871936 5.4703727952
H 3.0269052034 1.3540539407 4.0662026130
H 2.1195205965 1.0618244946 1.7904877630
H 3.6273529394 -2.0056814526 -3.4141229414
H 5.5807263881 -1.3662168702 -4.8311360389
H 7.5286071122 -0.2207907692 -3.8055932790
H 7.5328227938 0.2834476591 -1.3756944760
H 5.5765092279 -0.3635017129 0.0316255239
H -6.1862404301 3.2491718594 2.1837595073
H -4.7664629651 -1.2559656104 -1.1288517817
H -5.7790073746 -0.5817339846 -2.4240872634
H -6.4618593169 -0.8468376519 -0.8038730936
