42
CONF10
C -1.6683870578 -2.0761262178 -1.4330598248
C -2.1478727594 -0.7718424652 -1.5363199773
C -1.6663744380 0.2181124580 -0.6860655991
C -0.7042866890 -0.0828417001 0.2814602156
C -0.2388497648 -1.3972995613 0.3887708818
C -0.7169259762 -2.3871524737 -0.4649610167
C -0.1666554724 1.0178083599 1.1837867469
C -0.7809986048 1.0251015145 2.5658841117
C -1.6133351322 2.0844134503 2.9341478661
C -2.2221500696 2.1101395115 4.1872052283
C -2.0011275564 1.0743343023 5.0899961320
C -1.1679341741 0.0155374429 4.7319329778
C -0.5628611478 -0.0102275761 3.4793663246
C 1.3601088091 0.9816207152 1.1811047977
O 2.0396629211 0.9130210299 2.1801599028
C 2.0439698042 1.0148607245 -0.1920402446
C 1.2397175109 1.5069366592 -1.3979146088
O 0.6741929833 2.5815471276 -1.4768519018
C 1.3240123285 0.4775428571 -2.4538304318
C 0.7748876823 0.4958289180 -3.7309319171
C 1.0018211463 -0.6068183702 -4.5489380623
C 1.7593635283 -1.6979323257 -4.0996581467
C 2.3075059378 -1.7141541861 -2.8206585825
C 2.0773366301 -0.6112761344 -2.0061284826
C 2.5461087727 -0.3827771861 -0.6233176733
O 3.2183397990 -1.1330461336 0.0506029843
H -2.0342137883 -2.8462408489 -2.1047606674
H -2.8909682420 -0.5222557729 -2.2873388377
H -2.0270738070 1.2385833709 -0.7804083447
H 0.5125912426 -1.6538836802 1.1297370495
H -0.3365920558 -3.4002046869 -0.3790370988
H -0.4170906549 1.9710112045 0.6992587585
H -1.7880955202 2.8960470665 2.2329656107
H -2.8677263515 2.9406821484 4.4556986216
H -2.4725527550 1.0909996386 6.0676587725
H -0.9859837190 -0.7939000378 5.4322961699
H 0.0869083058 -0.8389164586 3.2210042068
H 2.9270657775 1.6562274042 -0.0706884405
H 0.1869389468 1.3416196124 -4.0717086323
H 0.5867031238 -0.6273038073 -5.5513373616
H 1.9178187587 -2.5419365062 -4.7630590879
H 2.8930030239 -2.5558396995 -2.4659704087
