39
CONF16
C 7.1720000406 0.9758430401 -2.8120526402
C 6.3233748628 -0.0121286921 -2.0140204765
C 5.9601858592 0.5122008304 -0.6251440793
C 5.0847414688 -0.4610188711 0.1629133729
C 4.6603339492 0.0617043850 1.5429454191
C 5.7980818279 -0.0253526413 2.5743556251
C 5.5965768516 0.8647435786 3.8007353615
C 3.4583664984 -0.7161334860 2.0625700499
O 2.2745368408 -0.4794523790 1.2267073512
C 1.5713761185 0.6208422577 1.4925068148
O 1.7762200112 1.4009584490 2.3969363507
C 0.4142530417 0.7620456571 0.5438429867
C -0.8499134034 0.4216244608 1.0057912545
C -1.9527086538 0.5582572413 0.1753729108
C -1.8104027427 1.0473551894 -1.1274313165
C -0.5328168865 1.4064290157 -1.5893129480
C 0.5748975220 1.2589225660 -0.7472312341
Br 2.3210643567 1.7644813622 -1.3019258012
Br -0.3059431776 2.0874775757 -3.3413125241
Br -3.3248730613 1.2288084792 -2.2469904330
Br -3.6428182661 0.0558665592 0.8823064474
H 7.4188944203 0.5836906852 -3.8037052519
H 6.6403564700 1.9243619855 -2.9478930285
H 8.1118861880 1.1924189516 -2.2921197597
H 5.3997921430 -0.2356235244 -2.5649913563
H 6.8607936217 -0.9641498774 -1.9111423313
H 6.8827594010 0.7335338552 -0.0724316764
H 5.4274887895 1.4687373974 -0.7297387662
H 5.6124877754 -1.4172623576 0.2929865849
H 4.1878301234 -0.6758355823 -0.4311546087
H 4.3633508279 1.1159948072 1.4445047467
H 6.7354165421 0.2560606814 2.0824218584
H 5.9179782897 -1.0739917294 2.8815913949
H 6.4416529738 0.7742617455 4.4902019720
H 5.5152462427 1.9157861662 3.5033024277
H 4.6899723325 0.6052550691 4.3564795529
H 3.2041743369 -0.4577716607 3.0925006607
H 3.6257340425 -1.7935563401 1.9823242738
H -0.9715891603 0.0447818403 2.0146536201
