21
CONF5
C -3.1998277981 0.9602155221 -0.6677104261
C -1.7529056608 1.2586667383 -0.3742327783
O -1.3691357640 2.4135051596 -0.2198520426
C -0.7911583782 0.1201362039 -0.2747498218
C -1.1990280889 -1.2054475206 -0.4439597156
C -0.2594877257 -2.2305037821 -0.3416513663
C 1.0703409210 -1.9454666102 -0.0749083282
C 1.4817719303 -0.6148076921 0.0950337544
C 0.5533717460 0.4169276529 -0.0042008857
O 2.8062985487 -0.4379032952 0.3525262164
C 3.2726870835 0.9085646709 0.5246189677
H -3.2966049732 0.4274877200 -1.6195786858
H -3.6218483871 0.3121786221 0.1078701528
H -3.7604656778 1.8940628667 -0.7106385248
H -2.2339921291 -1.4473197682 -0.6531433599
H -0.5682016750 -3.2628483329 -0.4717045397
H 1.8080486040 -2.7375587689 0.0057431006
H 0.8344933499 1.4547191526 0.1210388606
H 4.3432207818 0.8271216854 0.7133047126
H 2.7818661919 1.3873226690 1.3797583600
H 3.1005567090 1.5009469058 -0.3813739607
