44
CONF35
C -5.5622101386 -0.2231504050 0.7430536283
N -4.1451640576 -0.2166619772 0.3597667877
C -3.2557940249 -0.0863804938 1.5368900813
C -3.3612407674 1.4045809832 1.9628046085
C -3.7168033154 2.1404745997 0.6447180756
C -3.7878076207 0.9982796500 -0.4082598161
C -2.4224507131 0.7467929353 -1.0621951681
C -1.3677151252 0.5258026231 0.0161857625
C -1.8356152734 -0.4522291474 1.0839618423
O -0.1588546031 -0.0469604686 -0.5817119814
C 0.7412351000 0.7968574545 -1.1044373695
O 0.6294616948 2.0072888957 -1.1108139298
C 1.9460130409 0.0579281226 -1.6691650971
C 1.5264943507 -1.1257824657 -2.5524629750
O 0.6105296799 -0.7272786748 -3.5747913800
C 2.8851958153 -0.3787659769 -0.5593675861
C 2.5043575869 -1.3393473133 0.3844270744
C 3.3921900638 -1.7414994141 1.3784531787
C 4.6702902280 -1.1902566630 1.4457390809
C 5.0563240841 -0.2333016844 0.5107271509
C 4.1689479769 0.1687201074 -0.4848255727
H -5.7636077659 -1.1072736320 1.3568594786
H -5.8832515766 0.6663615526 1.3110296676
H -6.1783498098 -0.2880083460 -0.1599150266
H -3.5770223985 -0.7731390014 2.3263287783
H -4.1489875117 1.5338502664 2.7097568117
H -2.4286628971 1.7625747392 2.4095144674
H -2.9737829755 2.8943890103 0.3676931015
H -4.6811110795 2.6490303912 0.7254886315
H -4.5379141739 1.1859100816 -1.1830884146
H -2.1390366036 1.5944523290 -1.6951987349
H -2.4870542021 -0.1484851305 -1.6910314585
H -1.0846107263 1.4796682321 0.4697846795
H -1.8463069534 -1.4671830655 0.6710044036
H -1.1445441290 -0.4331194148 1.9341043181
H 2.4310173253 -1.5789300203 -2.9806533048
H 1.0101854423 -1.8815612475 -1.9561113379
H 3.0829645760 -2.4880069277 2.1036864902
H 5.3604992732 -1.5051772579 2.2221127317
H 6.0499477993 0.2021541179 0.5539677504
H 4.4746414677 0.9134700270 -1.2142910971
H 1.5095062659 -1.7707200562 0.3491808649
H 2.4700536938 0.7894470119 -2.2924109494
H 1.0830743446 -0.1526424043 -4.1906876623
