41
CONF48
C 6.0271144153 2.4370442878 0.0136723983
N 5.0597974780 1.3734753879 -0.2277351106
C 3.7172261042 1.4768950413 -0.2504917961
C 3.2085718415 0.2044750291 -0.4747495601
C 4.3688336869 -0.6057082999 -0.5839819488
N 5.4822864302 0.1176119990 -0.4388853801
C 4.5383622682 -2.0475414136 -0.8925719389
F 3.9775130753 -2.8372305564 0.1079194455
F 3.8575858622 -2.3843334105 -2.0451236185
C 1.7586313945 -0.0554139460 -0.6010832398
O 0.9819991353 0.8481507415 -0.9170630691
N 1.3514716892 -1.3299402575 -0.3363535223
C 0.0291909864 -1.8168170220 -0.4830007243
C -0.1581868784 -3.0280026555 -1.1691877341
C -1.4223157983 -3.5922429808 -1.2928442953
C -2.5436452382 -2.9699359909 -0.7322763142
C -2.3485746876 -1.7889997571 -0.0394209080
C -1.0768842857 -1.2005903641 0.0882025306
C -1.2521319765 0.0523620366 0.9225557132
C -2.0474793136 1.0746542381 0.0451062795
C -3.4553714632 0.4208099754 -0.0984742322
C -3.3228529594 -0.9066439998 0.7144168785
C -2.3862915377 -0.4324967692 1.8093875754
C -2.5225530501 -0.4212743125 3.1237641960
Cl -3.9469860635 -1.0223000856 3.9412758178
Cl -1.2941319390 0.1944643035 4.2056433426
H 5.4925740487 3.3866506252 0.0448747609
H 6.7593505658 2.4505815793 -0.7963803820
H 6.5350650995 2.2671313614 0.9664172144
H 3.2091622746 2.4183295856 -0.1015655213
H 5.5873037106 -2.3350673976 -1.0020626702
H 0.7054389196 -3.5243594843 -1.6024191249
H -1.5338445807 -4.5311616704 -1.8259200601
H -3.5293914499 -3.4165166240 -0.8168154498
H -2.1102793309 2.0320174893 0.5699413756
H -1.5443381837 1.2319254342 -0.9088147052
H -4.2320472598 1.0484401885 0.3466972886
H -3.7271077276 0.2148165187 -1.1367023628
H -4.2610957435 -1.3721576940 1.0103859549
H -0.3628687624 0.4456189141 1.4081134257
H 2.0580695256 -2.0260347543 -0.1441505348
