21
CONF2
C 2.5752262251 0.4764776483 0.0303387865
C 1.2333938460 -0.2154133395 -0.0092476444
C 1.2496963979 -1.6166701461 -0.0752588827
C 0.0760305282 -2.3531747891 -0.1113560463
C -1.1481828873 -1.6898444494 -0.0818588856
C -1.2009685918 -0.2986046710 -0.0172073157
C -0.0037400419 0.4550033832 0.0192320570
C -0.1238179671 1.9554791614 0.0901089212
C -2.5372810976 0.3924793975 0.0127147696
H 2.5108960186 1.5624277573 0.0637524044
H 3.1674273578 0.2047480003 -0.8501997216
H 3.1430007023 0.1499456853 0.9085230096
H 2.2094691173 -2.1272759449 -0.0975673441
H 0.1106709121 -3.4374876369 -0.1622585846
H -2.0753566808 -2.2561965961 -0.1092994448
H 0.8388629177 2.4625358500 0.0896322594
H -0.7029466957 2.3392772015 -0.7574869320
H -0.6599774562 2.2609753941 0.9962947802
H -2.6604126968 1.0664675951 -0.8431421350
H -3.3495385244 -0.3376201025 -0.0091004150
H -2.6524514943 1.0064707868 0.9133865648
