45
CONF226
O 1.5629974821 -2.2526316858 -1.1226511823
C 1.7016401797 -2.2898233944 0.2965402605
C 1.9923893562 -0.9218461717 0.8816522178
O 3.2803724492 -0.4599120369 0.3771274293
C 3.1402031172 0.8102670925 -0.2625597404
O 2.8870105522 0.6532369730 -1.6472758811
C 4.4144920942 1.6134714401 -0.0418984192
O 5.4832611754 1.1034542785 -0.8430776772
C 1.8788828961 1.4063595274 0.3678119148
O 1.3165364736 2.4916663320 -0.3526042480
C 0.9911534219 0.1687150594 0.4944441886
O -0.0066553126 0.3253885845 1.5058355202
C -1.3409411101 0.2792909253 1.0822191540
O -1.6077420441 -1.0237680142 0.5682846340
C -3.0047441866 -1.2261702348 0.2859756752
C -3.1428203081 -2.6747299416 -0.1447888700
O -2.7951061032 -3.5715747672 0.9128665654
C -3.5158231333 -0.2366674652 -0.7568739296
O -2.9076619168 -0.5249337416 -2.0156482773
C -3.1922245399 1.1848658919 -0.2996499695
O -3.5816457187 2.0749380196 -1.3469047553
C -1.7077288026 1.3179513744 0.0134109915
O -1.4736254849 2.6475196606 0.4679383724
H 2.3194718708 -1.7561131285 -1.4694246475
H 0.7530612473 -2.6576876632 0.7029942917
H 2.5011574884 -2.9827841349 0.5981649846
H 2.0532447959 -0.9933983173 1.9757905173
H 3.7520484765 0.6078154754 -2.0870758776
H 4.6657914148 1.6102312707 1.0254693888
H 4.2423192122 2.6437882536 -0.3682069664
H 5.7607588385 0.2594460483 -0.4623961710
H 2.1159552470 1.7794310020 1.3713686809
H 1.3047012572 2.2374253479 -1.2887251920
H 0.5428667807 -0.0749154328 -0.4742566270
H -1.9317099949 0.4596482507 1.9947913032
H -3.5833766854 -1.0682737350 1.2116622454
H -4.1878958635 -2.8747367058 -0.4004135341
H -2.5229380478 -2.8534990481 -1.0327791151
H -1.8717312497 -3.3966805743 1.1370475153
H -4.6104476623 -0.3455545457 -0.8258188590
H -3.0777052507 0.2399018631 -2.5837008233
H -3.7680628420 1.3981446569 0.6165773643
H -3.1566449446 2.9250254983 -1.1645537186
H -1.1399283460 1.1155325164 -0.9047141081
H -0.5331559720 2.8321855024 0.2971592844
