50
CONF112
C 0.7760417381 0.0638817594 -2.0065121807
C -0.7279183344 -0.0615179163 -2.0482582650
C -1.3903542663 -1.3775454809 -2.3549365449
C -1.4686016353 -0.8053989967 -0.9314010715
C -0.7149257048 -1.4302915806 0.1601200637
O 0.2067292455 -2.2127882771 0.0789127341
O -1.1898326773 -0.9716112042 1.3637735323
C -0.4168586375 -1.3899212365 2.5058664064
C -1.2573978997 -1.1079501610 3.6710575499
N -1.8811457125 -0.8838726858 4.6165371381
C 0.9063467637 -0.6484687271 2.6173407922
C 1.0329546875 0.6211442672 2.0589717339
C 2.2478706424 1.2903954977 2.1856605929
C 3.3170570723 0.7090600258 2.8685191671
C 3.1669133454 -0.5568276984 3.4184688725
C 1.9626029060 -1.2470137533 3.2967259961
O 2.4916832116 2.5222714569 1.6249358005
C 1.4230949913 3.2726839880 1.1439144350
C 1.4231697630 3.6046737557 -0.2046006675
C 0.4031954106 4.4138183133 -0.7014648602
C -0.6021415290 4.8758965437 0.1442605381
C -0.5816901704 4.5371291618 1.4969084232
C 0.4355157884 3.7364087665 2.0077046379
C -0.5924409780 -2.5780289358 -2.6556313214
C -1.0517902896 -3.7885917504 -2.9824621451
C -2.4816594580 -4.2501455173 -3.0148146908
F -2.6378742337 -5.4484993544 -2.4063039434
F -2.9359820829 -4.3979172040 -4.2863375399
F -3.3082113429 -3.3841079384 -2.3937913760
Cl 0.0588899934 -5.0584813600 -3.4708756705
C -1.4262331706 1.1826321303 -2.5514349156
H 1.1578661409 0.2050225892 -3.0234390470
H 1.0473104360 0.9468447789 -1.4185295196
H 1.2742504046 -0.7988526962 -1.5635311914
H -2.3418701127 -1.3062459410 -2.8698089113
H -2.4235711734 -0.3824157534 -0.6394652220
H -0.2349287758 -2.4709089238 2.4630671493
H 0.2054063297 1.0722490323 1.5243156471
H 4.2525487651 1.2521018328 2.9499423515
H 4.0002901516 -1.0132587584 3.9424780088
H 1.8496261995 -2.2397403039 3.7206781606
H 2.2151516153 3.2340252755 -0.8467882054
H 0.3957210445 4.6785143975 -1.7541385590
H -1.3969911560 5.5025787717 -0.2466440714
H -1.3571192483 4.9033442175 2.1622331013
H 0.4662073263 3.4701004587 3.0594584690
H 0.4867133949 -2.4643887609 -2.6658079958
H -1.0772320861 1.4198201791 -3.5623046515
H -2.5112927644 1.0514149806 -2.5809997711
H -1.1950940235 2.0337791566 -1.9015689848
