73
CONF372
C 0.4317820646 2.5302685561 -2.1541922771
C -0.7162422408 2.5994378576 -1.1720625611
O -1.9365199979 2.5356604196 -1.9538197529
C -3.1256767040 2.5180996269 -1.1806987348
O -3.1905693075 1.4116897435 -0.2997672874
C -3.5240817822 0.1643540917 -0.9186324547
C -4.9968857784 -0.1500675393 -0.6861030416
O -5.7664153543 0.8072911079 -1.4085785405
C -5.3386747208 -1.5769416301 -1.1121016374
O -6.7111685754 -1.8623495084 -0.8369829141
C -4.3945655596 -2.5645888332 -0.4240105466
C -4.5744756065 -4.0024297925 -0.8778387107
O -4.4091474559 -4.1592497939 -2.2863871606
O -3.0396873303 -2.2010406144 -0.7528880717
C -2.6755437995 -0.9231884666 -0.2654675959
O -1.3352661945 -0.7015715408 -0.6403423839
C -0.3425058901 -1.2892340721 0.0909849524
C -0.5787328450 -2.2455322098 1.0788080730
C 0.5121244156 -2.7615728515 1.7701489766
O 0.2954858605 -3.7031884321 2.7004647504
C 1.8374178339 -2.3326185803 1.4870745431
C 2.9703251597 -2.9590044170 2.1138648188
O 2.8545536007 -3.8546692159 2.9740961219
C 4.3247623355 -2.5046992737 1.6378546971
C 4.2765574136 -1.0528740281 1.1811038396
O 3.2506499611 -0.8959813866 0.1475902988
C 2.0193295130 -1.3558590863 0.4760369909
C 0.9442759761 -0.8402585283 -0.2240048328
C 5.5694790417 -0.5510919472 0.6133188925
C 6.1085750490 -1.1104909056 -0.5481398615
C 7.3143808377 -0.6547143543 -1.0640230335
C 8.0045769274 0.3693438395 -0.4090388223
O 9.1956763550 0.8554446887 -0.8637017180
C 7.4796878468 0.9361471865 0.7524224038
C 6.2659654449 0.4774254272 1.2494750504
C -3.2309951379 3.7794150174 -0.3225751445
O -3.4327925418 4.9268856259 -1.1550366047
C -1.9713448755 3.9396749287 0.5303009316
O -2.0044749956 5.1519807445 1.2879236518
C -0.7213483601 3.8833370063 -0.3445835707
O 0.4593453194 3.8925011498 0.4587704615
H 1.3840569570 2.5463879263 -1.6184570472
H 0.3992973504 3.3832232209 -2.8401245061
H -0.6872506610 1.7419209105 -0.4870297709
H -3.9398198787 2.4865427469 -1.9130185095
H -3.2988282122 0.1876126898 -1.9934836531
H -5.1946860915 -0.0559603160 0.3976209105
H -5.2243982497 -1.6710748956 -2.1976350470
H -6.8426117316 -1.8218145789 0.1214246991
H -4.5393041568 -2.5184872617 0.6704037124
H -5.5921732867 -4.3235579615 -0.6400754412
H -3.8686655798 -4.6367555184 -0.3229187545
H -3.5008121782 -3.9099000484 -2.5004151882
H -2.7801788993 -0.8778958081 0.8322859199
H -1.5663756427 -2.6280697626 1.2987186534
H 1.1973631796 -3.9708911539 3.0357768023
H 4.6291636575 -3.1543065711 0.8052683075
H 3.9747113465 -0.4186539321 2.0262461624
H 5.5790459025 -1.9053651620 -1.0651609701
H 7.7249320678 -1.0903928696 -1.9712232225
H 9.4488393197 0.3889731885 -1.6717247962
H 8.0220168139 1.7340540100 1.2489688659
H 5.8549885813 0.9285386713 2.1484490242
H -4.1132254003 3.7114465993 0.3215231007
H -2.8129112562 4.8703675199 -1.8966112594
H -1.9239819033 3.1210703862 1.2582831101
H -2.2626580539 5.8530547582 0.6705025666
H -0.7151967518 4.7481303291 -1.0315730975
H 0.3563823900 4.6173948052 1.0910281550
H 0.3738689815 1.6065779273 -2.7372728110
H 5.0567849492 -2.6255930448 2.4411004827
H -6.6946583827 0.5539771849 -1.3086139887
H 1.0922329708 -0.0828419462 -0.9833089740
