33
CONF19
C -2.9219055723 -1.0284841329 1.3104525976
C -2.8751490736 0.1595969277 0.3257533344
C -2.5393079607 1.4109784307 1.1197950727
O -3.6611321618 1.9955368649 1.6027772537
O -1.4284992915 1.8326650273 1.3500098941
C -1.9008796721 -0.0601741826 -0.8080592906
C -2.3377010109 0.0283929007 -2.1299266428
C -1.4569572191 -0.1878444146 -3.1895476163
C -0.1280676378 -0.4909432817 -2.9374723290
C 0.3324080902 -0.5584399161 -1.6169189495
C -0.5584599994 -0.3500171819 -0.5613047957
C 1.7598199677 -0.9221091617 -1.3780893186
O 2.3549270649 -1.6390627769 -2.1756074863
C 2.4560781495 -0.4030574686 -0.1655359217
C 3.5130396631 -1.1530130178 0.3654468321
C 4.2186125228 -0.6869388454 1.4656918092
C 3.8930364879 0.5458960794 2.0318832308
C 2.8581740850 1.3078982866 1.4960102462
C 2.1341637517 0.8335220542 0.4072973458
H -3.6770344362 -0.8587471333 2.0827749008
H -1.9532278878 -1.1713274994 1.7962759591
H -3.1752871367 -1.9402798740 0.7639124439
H -3.8773410217 0.2962982319 -0.0913542270
H -3.3850153946 2.7517979782 2.1473498553
H -3.3782762804 0.2656502159 -2.3339377744
H -1.8150340313 -0.1179634611 -4.2116580244
H 0.5698573894 -0.6708565026 -3.7480960257
H -0.2040377548 -0.4267208565 0.4596731192
H 3.7627517263 -2.1030027488 -0.0952495793
H 5.0257171238 -1.2804285483 1.8832703480
H 4.4496305540 0.9132558461 2.8884401475
H 2.6113962643 2.2729837092 1.9265421228
H 1.3337009084 1.4349385307 -0.0098770335
