35
CONF24
C -4.5825334855 -0.6212121964 -1.4073924855
C -3.2489814824 -0.1634858423 -1.9528809703
O -2.2201994551 -0.1903465853 -0.9094421877
C -1.6584915945 -1.3507036454 -0.6454728717
N -1.9117140135 -2.4601051899 -1.2890467344
C -1.2550626472 -3.5679983115 -0.9222214667
C -0.3228609926 -3.6775169350 0.0733900276
C -0.0476128185 -2.4838028790 0.7589828975
N 0.7769872433 -2.1709552161 1.7540106003
C 0.5356903476 -0.8504551521 1.9202896445
N -0.3623251128 -0.2691016486 1.1322854301
N -0.7449652234 -1.3322113107 0.3740459144
S 1.4957332950 0.1543649381 3.0749535847
O 2.0358797083 -0.7415033084 4.0866423738
O 0.7194909962 1.3508915538 3.3615289974
N 2.8551526495 0.6338511144 2.1219467535
C 2.6474457076 1.5770052222 1.0919233911
C 2.4882949746 1.2095175479 -0.2546679303
C 2.2888151899 2.1419301640 -1.2613249834
C 2.2321317518 3.4889450152 -0.9275322178
C 2.4155911064 3.8989031764 0.3857265654
C 2.6427290279 2.9540204715 1.3794436973
Cl 2.9918435189 3.5137549027 2.9865668940
Cl 2.5885352977 -0.4845761261 -0.7000237587
F -1.5782546021 -4.6534505740 -1.6331521632
H -4.5505726672 -1.6747582405 -1.1212386089
H -5.3446258341 -0.5013618001 -2.1835481676
H -4.8735576281 -0.0195743549 -0.5425171564
H -2.9114465747 -0.7773858570 -2.7916375274
H -3.2691117359 0.8871542284 -2.2473435034
H 0.1716639169 -4.6053717388 0.3217884566
H 3.3506297610 -0.2035812853 1.8240410010
H 2.1746765135 1.8113671023 -2.2863818186
H 2.0634087052 4.2278987819 -1.7031618342
H 2.4076162568 4.9498539947 0.6475146557
