54
CONF3
C 2.9125060275 -2.8634136892 1.0632136245
C 1.6107143300 -2.3035656734 0.5100599559
C 1.5043865377 -0.8042731482 0.6477935193
O 2.3578040589 -0.0903225698 1.1359727171
O 0.3238412140 -0.3887595906 0.1517180524
C -0.1105786411 1.0176625676 0.1613340846
C -0.2148248449 1.4809373371 1.6369491592
C -0.9008913960 0.4850987419 2.5401157265
C -2.2954270613 0.3677345096 2.5710663697
C -2.9149412166 -0.5753677295 3.3872442488
C -2.1513147780 -1.4176196557 4.1931250695
C -0.7636987601 -1.2987840336 4.1852311892
C -0.1471111709 -0.3543959680 3.3672921485
C -1.4688029715 0.9872265259 -0.5364525728
C -1.8545041229 -0.0931178809 -1.3370655227
C -3.0748043756 -0.0857783783 -2.0093180915
C -3.9336973988 1.0034347327 -1.9013385401
C -3.5586181078 2.0868723362 -1.1115212030
C -2.3414214519 2.0776735110 -0.4369037084
C 0.9175487819 1.8730929727 -0.6406976954
C 0.5823434039 3.3651202239 -0.6761505382
C 1.0861117872 1.3278305878 -2.0661575889
N 2.2332454130 1.9105730605 -2.7762017619
C 2.1568935466 1.5486238521 -4.1940496968
C 3.4998112470 1.4265074110 -2.2213508500
H 3.0146278068 -2.6369305336 2.1281205590
H 3.7750848681 -2.4391637264 0.5423108980
H 0.7405606067 -2.7395689279 1.0160270436
H 1.4893443871 -2.5451820250 -0.5531449192
H 0.7963374479 1.6744095921 2.0028921874
H -0.7539746999 2.4299772872 1.6610089951
H -2.9024252438 1.0228722135 1.9544877187
H -3.9984726072 -0.6482646172 3.3974679283
H -2.6345419486 -2.1524378977 4.8296933071
H -0.1578332628 -1.9393644765 4.8192200246
H 0.9351236648 -0.2626351732 3.3740561947
H -1.2004185639 -0.9497893483 -1.4388442255
H -3.3516052777 -0.9398448448 -2.6201189006
H -4.8853022103 1.0079629184 -2.4236298053
H -4.2170107724 2.9442675430 -1.0109797990
H -2.0883365370 2.9317216205 0.1805870840
H 1.8576765909 1.7563595882 -0.0981314524
H 0.1815265241 1.5693006896 -2.6389888235
H 1.1702860692 0.2238713231 -2.0469685250
H 1.2293450033 1.9360723066 -4.6282748268
H 2.1806603564 0.4524320282 -4.3513178239
H 3.0023108782 1.9877866875 -4.7338671544
H 3.6261207991 1.7581404637 -1.1868122698
H 3.5683842572 0.3204107586 -2.2400771423
H 4.3317566394 1.8314211105 -2.8063643746
H 2.9351652195 -3.9491628915 0.9387091715
H -0.3130961840 3.5618335516 -1.2736770552
H 0.4336674328 3.7807955065 0.3241453681
H 1.4150756876 3.8991771047 -1.1404068322
