41
CONF24
O 8.9187922609 -0.2777715893 0.0496128307
N 8.1264052823 -0.2904091999 -0.8970837207
O 8.4841641025 -0.3444811272 -2.0773693467
C 6.7055405986 -0.2374984785 -0.6080742272
C 6.2823500938 -0.1738248794 0.7205578480
C 4.9273584314 -0.1258788026 0.9843243831
C 3.9864503598 -0.1378237770 -0.0627774971
C 4.4411431961 -0.2043129124 -1.3974031956
C 5.7926208219 -0.2535594874 -1.6681127955
N 2.6468039042 -0.0896585356 0.3314279604
N 1.8155936033 -0.0581787436 -0.6419545505
C 0.4837390899 -0.0260207709 -0.3062170548
C -0.4283725895 0.0210278076 -1.3822193514
C -1.7854761926 0.0519828330 -1.1770666267
C -2.3232096112 0.0392306711 0.1420091685
C -1.3930643625 -0.0101819635 1.2275716416
C -0.0408411280 -0.0417597395 1.0087558851
N -3.6598149875 0.0710915692 0.3620803207
C -4.2264620892 -0.0140826466 1.7093664555
C -4.2838072103 1.3360774551 2.4242949276
O -5.0958727489 2.2919481785 1.7379137674
C -4.6250528155 0.1254897137 -0.7448848359
C -4.9340299532 -1.2576460329 -1.3137813904
H 7.0077083134 -0.1629155623 1.5240219063
H 4.5676752076 -0.0771463806 2.0068050056
H 3.7243500931 -0.2190231264 -2.2087723893
H 6.1514845458 -0.3057548451 -2.6885165548
H -0.0327711234 0.0263405367 -2.3934923724
H -2.4396786897 0.0721175360 -2.0381276046
H -1.7460696892 -0.0160808035 2.2504061648
H 0.6367473031 -0.0772854975 1.8538297725
H -5.2408281869 -0.4161248822 1.6156846633
H -3.6629680979 -0.7273284276 2.3204410043
H -3.2847804153 1.7787688767 2.4808959360
H -4.6444856372 1.1686899110 3.4493586102
H -6.0119713143 1.9888332219 1.7820815156
H -5.5357953127 0.5820101577 -0.3508004776
H -4.2510423385 0.7991097263 -1.5209524304
H -4.0348294190 -1.7302053308 -1.7192447874
H -5.6712091581 -1.1694638089 -2.1173305277
H -5.3464938304 -1.9083016371 -0.5366180408
