52
CONF2
C 2.9462709580 -3.8180448875 0.8570609693
N 2.8786707242 -2.3758569596 1.0833757451
C 1.8501512257 -2.0609559875 2.0786525809
C 1.7643241615 -0.5599697601 2.3090877116
N 1.4543934709 0.1237263816 1.0533059359
C 2.4884092733 -0.1748987604 0.0635667255
C 2.5740359027 -1.6754988412 -0.1674437082
C 1.2679532928 1.5643160774 1.2282941377
C -0.0384035355 1.9068239825 1.9501078348
C -1.2280791380 1.1236627216 1.3885961050
N -1.3129364300 1.2447148141 -0.0727335704
C -1.5408090237 2.5080606911 -0.6427386869
C -2.2260721067 3.5127453259 0.0537929978
C -2.4300965207 4.7641127363 -0.5208334835
C -1.9865765409 5.0335285397 -1.8117699191
C -1.3241166072 4.0382957813 -2.5263405923
C -1.0826467850 2.8005664864 -1.9379418923
S -0.0882521399 1.6028556439 -2.8005916673
C -0.8371217732 0.1180008136 -2.1816084652
C -1.3441974219 0.0963504732 -0.8685658620
C -1.8664680730 -1.1122924245 -0.3910707437
C -1.8124080821 -2.2630977504 -1.1738803685
C -1.2909006763 -2.2372760429 -2.4641154845
C -0.8303730645 -1.0277838870 -2.9712695270
C -2.2698930592 -3.5608299374 -0.5856876343
F -3.2482777503 -3.4005641914 0.3388769475
F -2.7456638174 -4.4171295488 -1.5214279913
F -1.2518508699 -4.2156429371 0.0484459897
H 3.7272937938 -4.0418644090 0.1224686925
H 1.9893442852 -4.2291594382 0.4799012132
H 3.1925454762 -4.3300035323 1.7935410152
H 2.1022533388 -2.5635112496 3.0201300792
H 0.8548751811 -2.4322721510 1.7537397784
H 2.7185975711 -0.1952626555 2.7411401288
H 0.9724229135 -0.3612516417 3.0396989371
H 2.2247075530 0.3185208444 -0.8800971276
H 3.4811415884 0.2057736809 0.3795353250
H 1.6127601299 -2.0304058027 -0.5967007399
H 3.3642739903 -1.8913656843 -0.8964359955
H 2.1165227594 2.0281058179 1.7683679167
H 1.2440458680 2.0127257941 0.2272940731
H 0.0246459450 1.6810868562 3.0207094301
H -0.2011004576 2.9871702296 1.8711278860
H -2.1634319221 1.4227119189 1.8778525163
H -1.0697808702 0.0699998378 1.6128346395
H -2.5993465129 3.3217041188 1.0527481249
H -2.9513220189 5.5273773779 0.0481435165
H -2.1521469065 6.0056821342 -2.2635017676
H -0.9667623461 4.2284464513 -3.5338825565
H -2.3092011812 -1.1592714802 0.5958009029
H -1.2496510712 -3.1347567868 -3.0700068396
H -0.4317517007 -0.9780985718 -3.9795531482
