36
CONF13
C -3.8213268952 -1.0188642657 -1.4666126234
C -3.1099684350 -1.7478603071 -0.3400969822
C -2.8848353892 -3.2198657797 -0.6231884215
O -1.7757531507 -1.1784083698 -0.1631262110
C -1.6856731140 -0.0631591468 0.5843573687
O -2.6485635194 0.5197013488 1.0582746399
C -0.2986628565 0.3962889419 0.7262353249
C 0.7957580274 -0.5674061205 0.4382521032
O 0.8149383831 -1.7151987293 0.8200398716
O 1.7813040836 0.0073383110 -0.2921596245
C 2.9579628523 -0.8210606585 -0.5686644369
C 2.6641704695 -1.7117834594 -1.7628814972
C 4.0965979978 0.1502013940 -0.8091074164
C -0.0519048795 1.6553117579 1.2025221097
S 1.5828968540 2.3068448594 1.3585640580
C 1.1062569452 3.6862302817 2.4713913040
C -0.2269379061 4.1982072254 1.9792143837
S -1.3333031815 2.7428946031 1.7394877645
H -4.8136825006 -1.4541189442 -1.6207950897
H -3.2530315799 -1.1151776810 -2.3972306007
H -3.9417091584 0.0397535396 -1.2263323431
H -3.6545839522 -1.6087289652 0.5998493985
H -3.8478820000 -3.7258245836 -0.7386770301
H -2.3116305046 -3.3483364727 -1.5463850145
H -2.3345404845 -3.6904620659 0.1951742493
H 3.1435567449 -1.4329638835 0.3203197579
H 3.5376425810 -2.3327350927 -1.9850301875
H 2.4385988616 -1.1021032204 -2.6434563107
H 1.8170127923 -2.3681919904 -1.5531189312
H 3.8749775597 0.7966480922 -1.6637035865
H 5.0147946005 -0.4046344444 -1.0231213177
H 4.2658554095 0.7779370697 0.0693956916
H 1.8917766220 4.4455832624 2.4015557055
H 1.0437695601 3.3186586979 3.5004588452
H -0.7098931249 4.8499136558 2.7145862980
H -0.1239882997 4.7353710342 1.0309321587
