43
CONF17
C 1.8143067631 2.5854913909 3.4480853152
C 2.0921120992 2.9981708228 2.0181685186
O 1.7786714252 1.9389209736 1.0773013535
N 0.4013843404 1.8265327412 0.9636209094
C 0.0368847779 0.8382290941 0.2360695644
C -1.3963112371 0.5819411447 0.0111219070
C -2.2493117004 1.5939948552 -0.4838323941
C -3.6027922780 1.3208516650 -0.6948677381
C -4.1095408288 0.0531862364 -0.4367661026
C -3.2741497162 -0.9482319819 0.0320325729
C -1.9174017802 -0.6993531204 0.2535768512
O -1.1008060453 -1.7232492168 0.6408321312
C -0.7167384009 -1.6988473978 2.0359620564
Cl -3.9192937334 -2.5464425022 0.3541957727
O -1.6748447363 2.7854219981 -0.7650868409
C -2.5019210232 3.8138746603 -1.3333889931
O 0.9776125638 -0.0693710289 -0.2138592327
C 0.8129959427 -0.6671168856 -1.4436502659
O 0.0872928244 -0.2115388415 -2.2979467567
C 1.6490222854 -1.8747573379 -1.5729228076
C 1.7297928965 -2.4836597157 -2.8312658429
C 2.4923963661 -3.6314651813 -2.9975116664
C 3.1732333727 -4.1792358117 -1.9103882289
C 3.0915962609 -3.5770032318 -0.6558507720
C 2.3338846056 -2.4252205250 -0.4824610226
H 2.1178934102 3.3899070810 4.1255950814
H 0.7481265604 2.3939889374 3.5985432312
H 2.3773970513 1.6837449273 3.7068116454
H 1.5333230996 3.8976922592 1.7357983854
H 3.1585892444 3.1749553315 1.8528630427
H -4.2719343721 2.0820275766 -1.0735346522
H -5.1610527070 -0.1521288516 -0.6035779619
H -1.6073494976 -1.7661697524 2.6701597195
H -0.1569690781 -0.7877978140 2.2744075408
H -0.0812548551 -2.5720494697 2.1870130031
H -3.2995414694 4.1011375152 -0.6397244713
H -1.8357732305 4.6603068356 -1.4993564138
H -2.9323736769 3.4871839366 -2.2864409861
H 1.1943569728 -2.0477453004 -3.6676254065
H 2.5570743300 -4.1010716573 -3.9735237450
H 3.7676224687 -5.0780175511 -2.0413861511
H 3.6189038346 -4.0071359648 0.1893187903
H 2.2648867702 -1.9599502394 0.4934911448
