44
CONF73
C -4.4565060465 1.1546874020 3.9116710226
C -3.5719998204 0.3456698867 2.9973535247
C -3.9497525135 -1.1195228539 2.8355536051
O -3.5103785774 -1.4446040173 1.5003409421
C -3.2407100853 -0.2159873527 0.8120777798
O -3.7303669673 0.8166139368 1.6358837796
C -4.0608252081 -0.2236909090 -0.4938762974
N -3.6789936498 0.8468856958 -1.3952109362
C -2.8145228792 0.7911422835 -2.4295696566
N -2.6261629349 2.0021447846 -2.9379191524
C -3.4151343643 2.7824222387 -2.1458579452
N -4.0696174218 2.1297921475 -1.1935209923
C -1.7405359794 -0.0463765249 0.5519928192
C -0.9225896047 -1.0170505646 -0.0332420224
C 0.4266874706 -0.8030519993 -0.2899615932
C 0.9852954356 0.4272027084 0.0435225875
C 0.2025466692 1.4301976302 0.6063970921
C -1.1401762097 1.1835736242 0.8428246732
O 2.2968606588 0.7425441706 -0.2221523874
C 3.2324006193 -0.2756876607 -0.3306615108
C 3.4113746188 -1.1995546632 0.6951970758
C 4.4119119746 -2.1577351586 0.5832732363
C 5.2188867192 -2.1636920996 -0.5497853092
C 5.0510532975 -1.2368833108 -1.5709691032
C 4.0419354565 -0.2850841789 -1.4590061149
Cl 6.4873111475 -3.3754861619 -0.6906301483
Cl -1.5544460228 -2.5870886037 -0.5302040800
H -4.3770713475 0.7699880131 4.9327837317
H -4.1483571005 2.2034011420 3.9153429795
H -5.5000027853 1.0882077096 3.5899423302
H -2.5142216959 0.4369457605 3.2863145504
H -3.4392869029 -1.7770941832 3.5444086961
H -5.0367789321 -1.2560172104 2.9087989331
H -3.8943209769 -1.1705685364 -1.0105211033
H -5.1189176453 -0.1286784807 -0.2383386639
H -2.3680549023 -0.1348181555 -2.7695827522
H -3.5183492018 3.8524229753 -2.2754327726
H 1.0237781854 -1.5794242675 -0.7525827113
H 0.6476566908 2.3890433600 0.8474554262
H -1.7552332631 1.9633464227 1.2769388725
H 2.7773247595 -1.1705948400 1.5751056177
H 4.5657167763 -2.8830914694 1.3739702144
H 5.6914194237 -1.2564382094 -2.4452499472
H 3.8844989821 0.4492285417 -2.2414892519
