40
CONF10
C -4.7298011843 -1.3508174914 -0.3055040322
C -3.3535663669 -0.9093293284 -0.8047075395
C -2.4904171838 -2.1269485971 -1.1435216369
C -2.6310182989 0.0490686694 0.1901440179
C -2.1008827251 -0.7002703091 1.4230491923
O -2.7256038509 -1.2693364051 2.2969148194
N -0.7249003080 -0.5864478509 1.3457764298
C -0.3866966004 0.1619339058 0.2379110160
N -1.4059546331 0.5537764582 -0.4462546101
C 1.0313786299 0.4416238250 -0.0618594057
N 1.8250330406 -0.0732290222 0.8666074613
C 3.1660954773 0.0747495054 0.7825511610
C 3.9892660746 -0.4850614543 1.7868711038
C 5.3536131152 -0.3368617962 1.7065301820
C 5.9463117626 0.3685351017 0.6335488821
C 5.1676431246 0.9217068348 -0.3549273551
C 3.7611348297 0.7850987937 -0.3001660595
C 2.8988914719 1.3152502555 -1.2724050713
C 1.5255676843 1.1706157593 -1.2006584085
C 0.7823097580 1.8152322592 -2.3687389305
O 1.4323853860 2.3605807432 -3.2506642485
O -0.5288698937 1.7856645498 -2.4304777661
C -3.5046977965 1.2270007172 0.6282074528
H -5.1759968620 -2.0238861089 -1.0441179258
H -4.6506405842 -1.8931273896 0.6414712666
H -5.4104534018 -0.5072736872 -0.1690999213
H -3.4866210533 -0.3083148691 -1.7144011807
H -2.9713138236 -2.7110781630 -1.9333184412
H -1.4951841221 -1.8416610216 -1.4972951111
H -2.3778893068 -2.7807860753 -0.2706608234
H -0.0517369641 -0.9573017075 2.0023774823
H 3.5223317972 -1.0232957061 2.6050357440
H 5.9892181448 -0.7650550602 2.4749361859
H 7.0258404776 0.4704158556 0.5956017604
H 5.6140567470 1.4641302069 -1.1828075784
H 3.3138759368 1.8572185849 -2.1150981053
H -0.9924802322 1.2841213255 -1.6213421033
H -2.9083579413 1.9480278058 1.1938971044
H -4.3176940260 0.8714052440 1.2644194644
H -3.9241763998 1.7239253617 -0.2511191502
