22
CONF4
C 2.3206872243 0.0947737867 0.3501595214
C 1.3822139085 -0.3501932242 -0.7714851836
C -0.0468440642 0.2216022537 -0.7585106169
C -0.9082175711 -0.1436545390 0.4652308057
C -2.3815554688 0.1931237273 0.2716799078
O -2.5777947147 1.5976891053 0.0513819702
O -0.4167891032 0.5229526899 1.6453525844
O -0.7066447391 -0.2020433925 -1.9595455128
O 1.3324885747 -1.7827225687 -0.8372918085
O 2.0627718877 -0.5902890887 1.5790114806
H 2.2619109030 1.1853116288 0.4748536629
H 3.3447723237 -0.1644150894 0.0631240104
H 1.8214710743 -0.0125497677 -1.7195474735
H 0.0249324820 1.3161094473 -0.8199200630
H -0.8291172907 -1.2192279731 0.6709197917
H -2.8047849020 -0.4014461052 -0.5447330638
H -2.9127002858 -0.0504712834 1.1971781127
H -2.3767458753 1.7817917255 -0.8749379610
H -0.5642131560 1.4722852295 1.5202421008
H -0.6099023472 -1.1654233301 -1.9984532394
H 1.3567382857 -2.0916896125 0.0819620030
H 1.2273230499 -0.2115136301 1.9133290715
