45
CONF8
C -2.9673260319 -3.2191579943 -4.3949427067
C -3.4447012234 -2.1612192398 -3.4537890424
C -2.7573517422 -1.7170730493 -2.3982621320
C -3.2759985774 -0.6843798048 -1.4884658870
C -2.3747579578 0.4190212485 -0.8877598806
C -3.0040286916 -0.6625584498 -0.0101184505
C -2.1459486312 -1.7294917469 0.6274472816
C -4.1267517754 -0.1770546019 0.8817106622
C -0.9318146395 0.4562706375 -1.1694817321
O -0.1827435340 -0.4778842614 -1.3612321280
O -0.5026385948 1.7558013135 -1.1879577106
C 0.9138434605 1.9267855427 -1.4246574011
C 1.7310723712 1.4948632129 -0.2402748111
C 1.5674609229 2.1115418261 0.9963420454
C 2.2799616757 1.6994591709 2.1128626889
C 3.2021355523 0.6603503220 2.0463245526
C 3.3764652083 0.0567543125 0.8047940062
C 2.6588903131 0.4594488948 -0.3133119794
F 2.8787836399 -0.1643388116 -1.4764838983
F 4.2555267219 -0.9482729647 0.6782015449
C 4.0342686832 0.2370178916 3.2344032085
O 5.3531478043 0.7658032236 3.1855977608
C 5.3917110557 2.1740910576 3.3818807562
F 2.0722958614 2.3365813311 3.2808035702
F 0.7016044585 3.1314179106 1.1154518490
H -2.9132542190 -2.8377131158 -5.4218111185
H -3.6561440443 -4.0724889525 -4.4133897442
H -1.9761633234 -3.5844252221 -4.1129369208
H -4.4270430981 -1.7341554089 -3.6615367500
H -1.7712860723 -2.1225895888 -2.1930745505
H -4.2517140092 -0.2975252588 -1.7768395403
H -2.8266143611 1.4022641314 -0.8153002636
H -2.7597769436 -2.6136350380 0.8314249052
H -1.7485716351 -1.3669401247 1.5819352948
H -1.3032431411 -2.0257503944 0.0045751912
H -3.7268525396 0.2566135156 1.8049669520
H -4.7793492655 -1.0139867733 1.1543143001
H -4.7375764232 0.5820087231 0.3844113645
H 1.2146013621 1.3675113559 -2.3126451970
H 1.0256994519 2.9991544146 -1.5979782200
H 4.1494150586 -0.8493753214 3.2291735610
H 3.5278487766 0.5379516954 4.1621961597
H 4.9267784830 2.4555887276 4.3385648701
H 6.4455871517 2.4589859651 3.3924863644
H 4.8845532716 2.7147293864 2.5690482697
