33
CONF1
C 1.0485306589 -2.3193064653 0.7924311315
C 0.5383280194 -1.0333763079 1.4675213689
C 0.6541863680 -1.2159932416 2.9913604157
C -0.9090961770 -0.8071657715 1.0164495702
C -1.9998392825 -0.9511141218 1.8710673209
C -3.2924967073 -0.7601693345 1.3993471526
Br -4.7619750570 -0.9600213103 2.6062872342
C -3.5632862775 -0.4203016367 0.0721251315
O -4.8392549218 -0.2414928727 -0.3255546667
C -2.4477374479 -0.2837991095 -0.7668620330
Br -2.7539444090 0.1855425797 -2.6003997204
C -1.1532952053 -0.4673030774 -0.3179658935
C 1.3661592170 0.1964800585 1.0779369188
C 2.5678925791 0.1089426947 0.3785202515
C 3.2952315221 1.2551338642 0.0839352062
Br 4.9356480655 1.0916856520 -0.8848362749
C 2.8707442369 2.5303622804 0.4637597365
O 3.6178055705 3.6064626865 0.1436575349
C 1.6583206588 2.5899209049 1.1662807021
Br 1.0168802874 4.3134113863 1.7084813159
C 0.9181586640 1.4623402093 1.4685694292
H 1.0578090773 -2.2303250543 -0.2978170058
H 0.3876106866 -3.1476175337 1.0624931256
H 0.2469853719 -0.3586312895 3.5352258794
H 0.1323138525 -2.1216756224 3.3160352070
H 1.7100652725 -1.3188793682 3.2568956106
H -1.8627377381 -1.2091721652 2.9130117821
H -4.8551425154 -0.0092071396 -1.2688033188
H 2.9541014279 -0.8471283789 0.0500846787
H 3.1882679690 4.4114698668 0.4770874551
H -0.3267897007 -0.3353779162 -1.0077806495
H -0.0190658303 1.5683417913 2.0042345470
H 2.0582704149 -2.5653717103 1.1355157669
