47
CONF82
C -0.9830731850 -1.3252439142 -1.7837521886
C -1.8284142355 -0.2365732306 -2.4013465638
C -1.7353576579 -0.1797932615 -3.9105355531
C -3.1575838691 0.1442320200 -1.8002141989
C -3.6918164412 -0.5181788852 -0.6095833120
C -4.9864885263 -0.6565879825 -0.3238310821
Br -5.5680827325 -1.5793038723 1.2389694169
Br -6.4023928384 0.0247372656 -1.3997096428
C -1.9668734752 1.1234409898 -1.7149660820
C -1.3015258826 1.4054505699 -0.4373655575
O -1.2395805493 0.6978084347 0.5462369523
O -0.7070514468 2.6408045355 -0.4975310130
C 0.0892263546 2.9930978493 0.6705955955
C 0.0647352610 4.4521947379 0.7374586199
N 0.0620737324 5.6040643271 0.8138675044
C 1.4912678389 2.4423083602 0.5420055041
C 2.4004377933 3.0156578623 -0.3483641664
C 3.6604448399 2.4463424922 -0.4965896428
C 4.0105113025 1.3050986494 0.2186723765
C 3.0899059734 0.7422826445 1.0979566289
O 3.5035769006 -0.3566610977 1.8204125142
C 2.5760751400 -1.3406575625 2.1348087841
C 1.6506611943 -1.7996139131 1.1999004307
C 0.7922838441 -2.8357307503 1.5551630504
C 0.8639590546 -3.4135963824 2.8218246100
C 1.8040712026 -2.9490586658 3.7389235573
C 2.6632531311 -1.9062215323 3.4018563996
C 1.8324959616 1.3123168143 1.2798067030
H 0.0556693173 -1.2106252478 -2.1114743973
H -1.3413260718 -2.3004832235 -2.1302235947
H -0.9958013681 -1.3169435203 -0.6943790465
H -2.0560343671 -1.1364533182 -4.3369530753
H -0.7003027408 0.0019829256 -4.2188927222
H -2.3658970701 0.6119767596 -4.3237472686
H -3.9059550035 0.4801664097 -2.5111715966
H -2.9943166425 -0.9432176936 0.1033287864
H -2.0294965953 1.9772392177 -2.3803337797
H -0.3953584213 2.5991782326 1.5709679629
H 2.1260174588 3.8965720646 -0.9203670806
H 4.3762223136 2.8875515561 -1.1822891527
H 4.9863732219 0.8454781942 0.1036974032
H 1.6022328310 -1.3522796089 0.2125565892
H 0.0693656818 -3.1974692929 0.8304270584
H 0.1926906502 -4.2225020170 3.0903193935
H 1.8683063633 -3.3938756922 4.7269513858
H 3.3978193776 -1.5290367945 4.1055048305
H 1.1230520733 0.8729238591 1.9714077436
