34
CONF131
C -3.5041448462 -2.8608313867 0.9671766934
C -3.8038718942 -1.3897365118 0.8199255838
O -2.5401646177 -0.6341230514 0.7728802398
P -1.9221992100 -0.0531019289 -0.5691783003
S -2.4259808339 -0.8537312681 -2.2596544959
O -2.1037168206 1.5174548907 -0.3938492518
C -2.0395417062 2.4612718191 -1.5215430923
C -0.6179847437 2.6914095946 -1.9744957325
O -0.2980615780 -0.1297174073 -0.1862475365
N 0.1415167701 -1.4485812851 -0.0795162829
C 1.3895752549 -1.5199856626 0.2575783750
C 1.8118777965 -2.8842051028 0.4152257455
N 2.1899587088 -3.9693070169 0.5471589698
C 2.3862124756 -0.4665729021 0.5147580723
C 3.3401342987 -0.6806707330 1.5204423616
C 4.2932253708 0.2913074070 1.7944333206
C 4.3209244955 1.4695950605 1.0517468531
C 3.3921277688 1.6730871708 0.0325317585
C 2.4226021889 0.7162697758 -0.2372273361
H -4.4467248968 -3.4085398718 1.0660567089
H -2.9723196084 -3.2388336844 0.0895255542
H -2.8995771256 -3.0460021723 1.8593015422
H -4.3830001176 -1.1768566141 -0.0828272921
H -4.3304474187 -0.9867740356 1.6875931383
H -2.4900166539 3.3692103460 -1.1169136456
H -2.6699142284 2.0722154827 -2.3265748738
H -0.6157268039 3.4734592034 -2.7403766456
H -0.1893023964 1.7852786881 -2.4131244462
H 0.0102883648 3.0194819149 -1.1414188287
H 3.3251487890 -1.6006181610 2.0969427570
H 5.0180931608 0.1250217604 2.5843273587
H 5.0710670320 2.2253978189 1.2611925418
H 3.4236023210 2.5820883527 -0.5593331098
H 1.7163405297 0.8756402142 -1.0406051138
