43
CONF22
C -3.0459363251 -2.5236709049 0.0641410127
C -2.5618820536 -2.5014332080 -1.3876291350
C -1.2948732715 -1.6435654411 -1.3181575421
N -1.5411325480 -0.7440241924 -0.1646876372
C -2.8071746302 -1.0811219248 0.4955011067
C -1.0390261765 0.5317804687 -0.0915233447
C 0.2462949550 0.8553820864 -0.5943665205
C 0.7217336445 2.1636595490 -0.5586609466
C -0.0062941023 3.1867067130 0.0331968059
C -1.2341841883 2.8638277665 0.6116157712
C -1.7402677590 1.5680922191 0.5478132982
C -2.0659428845 3.8794529148 1.3038737802
O -3.1269694929 3.6518780073 1.8433465393
O -1.5090611383 5.1165990218 1.2770751616
S 2.3208782145 2.5840269244 -1.3115588121
O 2.3214795367 2.1002833880 -2.6900935974
O 2.5674073180 3.9866686422 -0.9729217874
N 3.5110229494 1.7038151547 -0.4975343476
O 1.0509277652 -0.1215987188 -1.1456252406
C 1.6569093309 -1.0289054354 -0.2937983989
C 2.4592622120 -1.9818962509 -0.9200366209
C 3.1309831005 -2.9186104426 -0.1448384241
C 3.0051759741 -2.9088639803 1.2428396900
C 2.2031984071 -1.9487578454 1.8505777915
C 1.5232960463 -0.9987869134 1.0916039278
H -4.0920583399 -2.8201747492 0.1692649413
H -2.4288352031 -3.2027401365 0.6628596059
H -2.3615251349 -3.4951204616 -1.7953211800
H -3.3134982214 -2.0173480466 -2.0211328342
H -0.4122011430 -2.2700499794 -1.1396940129
H -1.1242653658 -1.0675396003 -2.2330739791
H -3.6320489251 -0.4387439173 0.1422523376
H -2.7220862556 -0.9583315625 1.5815737456
H 0.3877363046 4.1936835885 0.0490802407
H -2.7068086449 1.3861780269 0.9995827192
H -2.1219608172 5.7010132345 1.7486576600
H 3.5400654604 1.9449381460 0.4888134643
H 3.4053786740 0.7019670416 -0.6337373576
H 2.5446446811 -1.9677246847 -2.0015533417
H 3.7586673934 -3.6584756041 -0.6306997691
H 3.5311485003 -3.6417272766 1.8445305877
H 2.1007396076 -1.9311595115 2.9308922391
H 0.9010817412 -0.2495830943 1.5675521862
