45
CONF103
C 5.9015306093 -3.4341258291 0.9807725358
C 4.7939690356 -3.0121074063 1.6114169044
C 3.9613683600 -1.8867528901 1.2171220009
C 2.8386413835 -1.5631749577 1.9223107849
N 1.9375224097 -0.6227051369 1.4512116203
C 1.9587283225 0.0401666902 0.1507993109
C 1.0494989733 1.1547245455 0.7591849186
C 1.0771643145 0.2930800665 2.0479672366
O 0.6283206972 0.3822732931 3.1649573559
N -0.2023576396 1.4721848896 0.1539790530
C -1.1973817716 0.5590605157 0.0939373404
O -1.0608126438 -0.5820672116 0.5367716447
C -2.5062450473 1.0151331966 -0.5474423500
N -3.2699144041 -0.0111951421 -0.7565209776
O -4.4934373605 0.3037663793 -1.3070310198
C -5.1857042324 -0.8984507674 -1.6263757863
C -4.6240782916 -1.5545838968 -2.8721075702
O -3.7325948574 -1.1112901143 -3.5580373382
O -5.2768368596 -2.7036203789 -3.1149497784
C -2.8193499887 2.4172600196 -0.8557157293
C -4.0726175116 2.9477491760 -1.0408200567
S -3.9747815916 4.6553226485 -1.3344378559
C -2.2136710952 4.5425671463 -1.2037682171
N -1.7817827861 3.3346845867 -0.9588284118
N -1.4254371314 5.6413254854 -1.2944991966
S 3.6672845179 0.5193794567 -0.2758185609
C 4.3278313759 -1.1849538220 -0.0683821845
C 2.3722288487 -2.2496630213 3.1680035397
O 1.2496905997 -2.6918309152 3.2922616385
O 3.3144077714 -2.2983682067 4.1224141059
H 6.3121096308 -2.9501868818 0.1009220983
H 6.4305163994 -4.3065014903 1.3491279699
H 4.4631395180 -3.5747888996 2.4787896005
H 1.5007340759 -0.5584742830 -0.6419900712
H 1.6115052773 2.0796096914 0.9243415007
H -0.3805457845 2.4023492669 -0.2338930612
H -5.1602897838 -1.6039915188 -0.7885631967
H -6.2246300054 -0.6090385679 -1.8139652106
H -4.9194097466 -3.1013307829 -3.9279670561
H -5.0347874493 2.4655973634 -1.0017875918
H -1.7956158236 6.4588884586 -1.7540717078
H -0.4413689625 5.4703420909 -1.4461315965
H 4.0297264137 -1.7953058826 -0.9294153288
H 5.4133442912 -1.0636652552 -0.1173833639
H 2.9543894403 -2.7872911053 4.8844727721
