51
CONF12
C 5.7877596632 0.3159901277 1.9590833810
C 5.1524715833 -1.0461187818 2.0342153926
C 5.7812855623 -2.1506379966 2.5099433638
C 7.1590347418 -2.2558253286 3.0672464006
O 7.1316607453 -2.7202103300 4.4390189796
C 3.7900264706 -1.1856721397 1.5608472639
C 3.0239504303 -0.1936975192 1.0312875362
C 1.6850195208 -0.4092399406 0.5795552470
C 0.8300064694 0.5098099622 0.0311166589
C 1.1921664260 1.9526885980 -0.1792414198
C -0.4846733889 0.0644594117 -0.3685498793
C -1.4481490710 0.8465712776 -0.9140543830
C -2.7835002093 0.4119742410 -1.3176508444
C -3.0160177166 -0.7686152458 -1.9474664478
C -1.9421003200 -1.6896099265 -2.4580617766
C -4.4043546890 -1.2728139650 -2.2445049260
C -5.4951423498 -0.5257312241 -1.4922574149
C -5.2424657691 0.9677386007 -1.6277029962
C -3.9154150096 1.4001970324 -0.9794987585
C -3.5889728112 2.8102606147 -1.5104408636
C -4.0760741085 1.4837748537 0.5500057146
H 5.1665656346 1.0550701812 2.4764393572
H 6.7827980863 0.3379204464 2.4018576230
H 5.8727219305 0.6435234076 0.9166717660
H 5.2188837327 -3.0848188587 2.5216892815
H 7.7285820910 -3.0201519433 2.5254521422
H 7.7140520247 -1.3138841239 2.9961747693
H 6.5834882748 -2.0966261840 4.9331157711
H 3.3570320860 -2.1834238605 1.6382419306
H 3.4454869264 0.8033548355 0.9425582905
H 1.3099882211 -1.4281437710 0.6843964508
H 1.1282656264 2.2155918495 -1.2414388384
H 0.4900461371 2.6062544691 0.3515521034
H 2.1976691679 2.1872119929 0.1683703063
H -0.7010649511 -0.9875558129 -0.1911508865
H -1.2380020181 1.9089554509 -1.0082595198
H -1.8177989593 -2.5606278033 -1.8012233900
H -0.9716347389 -1.1991820594 -2.5522151136
H -2.2412396796 -2.0820528230 -3.4381216390
H -4.5798889122 -1.2048912015 -3.3301788101
H -4.4342647684 -2.3472646258 -2.0139731348
H -6.4816959137 -0.7906976183 -1.8881759505
H -5.4847912482 -0.8176718044 -0.4349295859
H -6.0560136115 1.5537517426 -1.1826729307
H -5.2123879559 1.2207142063 -2.6971574729
H -3.3223965793 2.7775305950 -2.5725201763
H -4.4740830563 3.4467710420 -1.3997404140
H -2.7734149397 3.2878090578 -0.9602924457
H -4.3670646507 0.5180493410 0.9754192246
H -3.1341081089 1.7858876755 1.0199288277
H -4.8422480288 2.2233028695 0.8103995360
