44
CONF75
C 3.5644913676 1.3234316069 -3.5287969908
C 3.0749061264 1.2721899852 -2.0853527785
C 3.5236770539 -0.0202885583 -1.3058819637
N 2.5217932053 -0.2357391746 -0.2877780348
C 1.1251234555 0.0761108981 -0.6207792287
S 1.1980175059 1.1824625943 -2.0905970447
C 0.9657461831 0.6641270120 0.8251771805
C 2.4572484347 0.2954015081 0.9947632181
O 3.2907220061 0.4092020772 1.8626880528
N 0.0212983030 0.0815499584 1.7190032173
C -1.0669704147 0.7505334486 2.1772235478
O -1.3040355159 1.9294737926 1.9219346973
C -2.0382427581 -0.0907118259 3.0213843190
C -3.2013717540 -0.4722621834 2.1269920568
C -3.0610986219 -1.4651890624 1.1515487927
C -4.1148328084 -1.7938909232 0.3097038512
C -5.3321239727 -1.1193485147 0.4284726764
C -5.4868157208 -0.1227690313 1.3924052638
C -4.4228222620 0.1922065343 2.2321910438
O -6.3359253268 -1.4806155198 -0.4246693525
N -1.3828049386 -1.2876331803 3.5650300637
C 3.6259013372 -1.2416273037 -2.2060230522
O 4.8670504600 -1.3724807549 -2.7045751257
O 2.7088586110 -1.9908954520 -2.4547211821
C 3.5438136887 2.5066886604 -1.3151386031
H 4.6588456724 1.3471454024 -3.5446141401
H 3.1995623917 2.2352000835 -4.0096753988
H 3.2187130787 0.4657225140 -4.1116916941
H 4.4940607832 0.1647159599 -0.8346584034
H 0.4970052614 -0.7915979128 -0.8370524401
H 0.1007668432 -0.8938197800 1.9847510656
H -2.1166067304 -1.9907496608 1.0487557197
H -4.0062833416 -2.5663840739 -0.4448425879
H -6.4350185856 0.3995805114 1.4882434442
H -4.5499040269 0.9674914531 2.9823895302
H -7.1179791404 -0.9394812490 -0.2510270245
H -0.7937172152 -1.0264963690 4.3499455865
H -2.0917674593 -1.9145918996 3.9305673720
H 4.6383545054 2.5614354254 -1.3391129732
H 3.1384387583 3.4099928651 -1.7780029441
H 3.2193862765 2.4865015071 -0.2712445122
H 4.8772403427 -2.1360730911 -3.3084101204
H -2.4149312892 0.5975448505 3.7920656582
H 0.8347037636 1.7506960886 0.8067201214
