21
CONF19
C 1.0382049151 -1.2993662527 -0.2431548411
C 0.0610752025 -0.1411377758 0.0427928259
C 0.7900517581 1.1870444310 -0.2182418620
O -0.0507281223 2.3453563290 -0.0341885078
C -1.1524219998 -0.3041689971 -0.8756015593
O -0.7448849703 -0.1034593557 -2.2382494500
C -0.4080271518 -0.2291558135 1.5054000942
O -1.3926625323 0.7484364506 1.8647056069
O 2.2660333728 -1.2301806709 0.4937729416
H 1.3218952082 -1.2707109117 -1.2992557991
H 0.5252959566 -2.2538993959 -0.0541988106
H 1.6060072697 1.2957000313 0.5013379610
H 1.2180017713 1.1884490587 -1.2277556349
H -0.6400539067 2.4067705344 -0.7973534860
H -1.5704693116 -1.3137324567 -0.7388628351
H -1.9289683108 0.4198855082 -0.5975753173
H -1.5341928015 -0.1661184594 -2.7890378600
H -0.8629895182 -1.2112162130 1.6869461320
H 0.4700507204 -0.1354822941 2.1635333834
H -1.1057157877 1.5823601768 1.4560876400
H 2.0944985504 -1.5153736166 1.3988993888
