39
CONF6
C -3.5148754125 -1.5667217766 1.0411829480
N -2.8001116250 -0.5787423055 0.2431765714
C -1.9436491146 -0.8119205350 -0.7704467634
C -1.4888460582 0.4249986168 -1.2134409284
C -2.1588303760 1.3514581828 -0.3760884768
N -2.9362957812 0.7296287927 0.5122799963
C -2.1190560947 2.8371329187 -0.3084803283
F -0.8237750752 3.3041786779 -0.3394314965
F -2.7620559662 3.4079614842 -1.3922954560
C -0.5548013621 0.7332636413 -2.3101925782
O -0.6567500303 1.7718185019 -2.9686551500
N 0.4236206086 -0.1798398162 -2.6017664630
C 0.8038087892 -1.3397658530 -1.8757870346
C 1.1888722521 -1.2705309947 -0.5232623044
C 1.4822506237 -2.4589948298 0.1522108798
C 1.4424717892 -3.6583038141 -0.5342307544
C 1.1183826035 -3.7435042141 -1.8768349789
C 0.7860112157 -2.5677499753 -2.5383122963
F 1.7509865848 -4.7953418752 0.1368904394
C 1.2873399319 0.0115795630 0.2084778232
C 0.6113142019 0.1693844414 1.4194418314
C 0.6965113954 1.3657953732 2.1197705654
C 1.4767259130 2.4121330222 1.6269442389
C 2.1648469077 2.2546082725 0.4277860917
C 2.0638375847 1.0665287075 -0.2806439022
Cl 1.5896944696 3.9313386075 2.4773810158
Cl -0.2089795465 1.5355346696 3.6037635540
H -4.5841957684 -1.3449994828 1.0252181099
H -3.1491886692 -1.5424662431 2.0710777020
H -3.3348701881 -2.5518811649 0.6103024686
H -1.7323196482 -1.8163686390 -1.1061287298
H -2.6009572351 3.2112964280 0.6006195514
H 1.1077462772 -4.7024286209 -2.3825758339
H -0.0127296971 -0.6297780156 1.8055563965
H 2.7734661673 3.0693238798 0.0519579000
H 1.7774978400 -2.4424085900 1.1958287165
H 0.4854557579 -2.5993872498 -3.5805971346
H 2.6030136136 0.9561628370 -1.2150690894
H 0.9354356449 0.0193092396 -3.4524985090
