26
CONF202
C -1.8629735374 1.0331464860 1.3112414448
C -1.7332444044 -0.0423617941 0.2449276838
C -0.3032377717 -0.5708309420 0.0540666298
C 0.7220755881 0.5330210902 -0.2314124006
C 2.0981281444 0.0563674267 -0.7335956163
C 2.8836337608 -0.8800535600 0.1844019783
O 2.3983615167 -2.2242191332 0.1210019509
O 1.9577709604 -0.5331739518 -2.0335099872
O 0.1838703321 1.4337613374 -1.2059797328
O 0.1109594517 -1.2644065459 1.2451053502
O -2.5610393725 -1.1402114641 0.6914209260
O -3.2216902384 1.4559555038 1.4533634292
H -1.4670758840 0.6602282451 2.2673404633
H -1.2914106534 1.9164980589 1.0159779658
H -2.1072167657 0.3470063285 -0.7085481250
H -0.3264427502 -1.2752582733 -0.7951060202
H 0.8758542548 1.1132976594 0.6871883281
H 2.6916080352 0.9700823400 -0.8694967663
H 2.8737291006 -0.4942558289 1.2131716455
H 3.9211060910 -0.9109628522 -0.1629445605
H 1.8402147963 -1.4844510064 -1.8811958685
H 0.2856022613 0.9915867789 -2.0626906306
H -0.6434895090 -1.8162428034 1.5071860232
H -2.8204702892 -1.6588018447 -0.0806554646
H 1.5548055453 -2.2184547643 0.6129448577
H -3.7432117406 0.6556796802 1.6021098232
