48
CONF39
C -2.8573294697 0.9425465341 1.7352884331
C -3.7812057720 0.8382520689 0.5132159896
C -3.7731667364 2.1813537286 -0.2326784608
C -5.2080164194 0.5461645175 1.0043245233
C -3.3640384545 -0.3360184663 -0.4162237684
C -1.8795025202 -0.2947567152 -0.8631457978
N -1.6608308813 -1.1203834287 -2.0489779588
C -1.4167578073 -0.7252331477 -3.3153239656
N -1.3936690735 -1.7757258807 -4.1246645023
C -1.6458451341 -2.8126684453 -3.2744118246
N -1.8240737385 -2.4645334876 -2.0075661009
O -1.1153067587 -0.7962638591 0.2112223379
C 0.2312143397 -0.5191426539 0.2784581178
C 0.8725616787 -1.0078223704 1.4185259704
C 2.2277453377 -0.7848378628 1.5993337030
C 2.9801649252 -0.0702449698 0.6538461474
C 2.3147118584 0.4085812589 -0.4794197820
C 0.9536793670 0.1911807983 -0.6787041936
C 4.4256375509 0.1649887215 0.8469566944
C 5.0200394353 1.3682785283 0.4388637943
C 6.3821889735 1.5869624258 0.6171286893
C 7.1797839556 0.6099638928 1.2099879381
C 6.6014378231 -0.5891163593 1.6219118535
C 5.2398804875 -0.8102239990 1.4415887082
O -4.2118478230 -0.4390247236 -1.5562143024
H -3.2734873831 1.6792621517 2.4305622318
H -1.8495998708 1.2709612631 1.4643708507
H -2.7771109129 -0.0155932065 2.2584928622
H -4.4905835596 2.2028977225 -1.0604008657
H -4.0650713970 2.9756885742 0.4616524254
H -2.7818035482 2.4373404389 -0.6212305090
H -5.5425755540 1.3509058691 1.6669422412
H -5.9084185040 0.4750525897 0.1678484416
H -5.2409157330 -0.3945390321 1.5653776536
H -3.4952964258 -1.2768119394 0.1321607201
H -1.5811808104 0.7235150927 -1.1399524248
H -1.2626690191 0.3112756294 -3.5882192904
H -1.6952483926 -3.8465298739 -3.5928949627
H 0.2918107312 -1.5481965572 2.1590632570
H 2.7043971983 -1.1515080570 2.5030278188
H 2.8696551086 0.9427915648 -1.2442478490
H 0.4937499804 0.5691459542 -1.5827501996
H 4.4059969623 2.1479512102 -0.0016090096
H 6.8205696183 2.5286137661 0.3005297860
H 8.2424069118 0.7816204165 1.3499292908
H 7.2148290839 -1.3608534546 2.0771492751
H 4.8069771534 -1.7588916768 1.7441280308
H -4.1838847709 0.3957227428 -2.0432524140
