53
CONF189
C 4.3543467155 -1.7909908957 0.2279929168
N 3.1524979920 -2.3954999584 0.8079627757
C 3.5155015782 -3.7203961248 1.3419567221
C 2.3200077627 -4.4465002055 1.9406822358
C 1.7021813108 -3.6030597500 3.0512128978
C 1.3599453711 -2.2211302007 2.5028292492
C 2.5804844349 -1.5419815764 1.8697834915
C 2.2293168852 -0.1343700907 1.3591813254
C 1.3202480422 -0.1354603225 0.1269750199
N 0.7512716694 1.1983617789 -0.1185910090
C 1.6152902852 2.2784764404 -0.3983343829
C 2.9079056666 2.0889218804 -0.8988318645
C 3.7434715649 3.1776791740 -1.1317050112
C 3.2953990792 4.4757843152 -0.9073887203
C 1.9949809115 4.6823975874 -0.4536533282
C 1.1730862946 3.5927038244 -0.1845231102
S -0.4586962104 3.8449080001 0.4844057497
C -1.2802443534 2.5112770288 -0.3497707809
C -0.5808644137 1.3026769601 -0.5408288668
C -1.2582399382 0.2371121997 -1.1450334963
C -2.5982105250 0.3863234302 -1.4860766307
C -3.2949518477 1.5727151581 -1.2931981641
C -2.6095689130 2.6485010775 -0.7383532861
S -3.4563221032 -1.0205163391 -2.2034868509
O -4.5335809731 -0.5081323171 -3.0804738825
O -2.4453767695 -1.9405274839 -2.7734570647
C -4.2218156293 -1.8357929393 -0.7873082368
H 4.7984314819 -2.4897236722 -0.4880452019
H 5.1177459149 -1.5518857994 0.9934142369
H 4.1157545527 -0.8721700523 -0.3130437378
H 3.9433545897 -4.3068876956 0.5203262529
H 4.3042427784 -3.6225270001 2.1177029475
H 2.6463460325 -5.4213225907 2.3206989109
H 1.5746955286 -4.6310009741 1.1558850838
H 0.8073926320 -4.0855462767 3.4601030169
H 2.4228759135 -3.5018971337 3.8745668033
H 0.9784130988 -1.5712726029 3.2988957742
H 0.5632195456 -2.3237964947 1.7549518695
H 3.3351022824 -1.4047182217 2.6752741871
H 3.1414500092 0.4373322087 1.1676627913
H 1.7049261637 0.3856278755 2.1694318971
H 0.4766083048 -0.7984699652 0.3208152806
H 1.8362432684 -0.5306708795 -0.7588766921
H 4.7476921107 3.0031560814 -1.5043079319
H 1.6205314420 5.6880223824 -0.2895550824
H -0.7537206479 -0.6961693622 -1.3619831533
H -4.3362508104 1.6647010971 -1.5790534477
H -3.1164673173 3.5957435840 -0.5853399975
H -3.4315973743 -2.1380093200 -0.0966911927
H -4.9140650445 -1.1334219994 -0.3181385153
H -4.7530093592 -2.7064119575 -1.1821705909
H 3.2662231608 1.0889996383 -1.1100071855
H 3.9442715078 5.3247398805 -1.0938756727
