48
CONF59
C -4.7918397685 3.2187389957 0.5050934262
O -3.6248985933 2.4533163593 0.8425248647
C -3.5835978880 1.1461619792 0.4638612383
C -4.6286476382 0.5034960237 -0.2408987164
C -4.5004086329 -0.8220651674 -0.5792103303
C -3.3453833532 -1.5632688301 -0.2434341936
N -3.2996529211 -2.8744649713 -0.6140961989
C -2.2179080914 -3.5574565431 -0.2928602986
C -1.1202961234 -3.0084274547 0.3964387386
C -1.1301110120 -1.6864673840 0.7824005001
C 0.0800944104 -1.1209210235 1.4858868841
O 0.5026063346 -2.0981856384 2.4541296611
C 1.2244864050 -0.8647048740 0.4847211585
C 2.5536621048 -0.4569543278 1.1712818325
C 3.2880038814 0.5109185075 0.2265452996
C 2.5195619372 1.8376899365 0.2241372844
C 1.0233441193 1.5050158834 -0.0101081122
N 0.8508919074 0.1323011878 -0.5422079296
C 1.7787761298 -0.0320638418 -1.6774963999
C 3.2654368133 -0.1043159305 -1.1958066995
C 4.1837471844 0.5700923514 -2.1602163866
C 5.1524119669 -0.0414825898 -2.8431883783
C -2.2833550655 -0.9077644759 0.4670012971
C -2.4390326839 0.4510020390 0.8085050313
H -5.6881021991 2.7980932022 0.9747972964
H -4.6081817811 4.2186549565 0.8985713383
H -4.9283529972 3.2707502882 -0.5809191441
H -5.5285883419 1.0400462852 -0.5150013303
H -5.2945949680 -1.3302176420 -1.1171355611
H -2.1918158187 -4.6050781761 -0.5908721166
H -0.2663675752 -3.6382827335 0.6203240284
H -0.1759072145 -0.1903311255 2.0060428304
H 1.2106499568 -1.7005609963 2.9771838557
H 1.3723603716 -1.8154345506 -0.0446882252
H 3.1652354333 -1.3405833422 1.3803992183
H 2.3631802028 0.0538248463 2.1264356899
H 4.3213935450 0.6568340239 0.5564698219
H 2.9015562908 2.5044655815 -0.5559465381
H 2.6521871711 2.3509558878 1.1826014300
H 0.5661306305 2.2048426820 -0.7184323129
H 0.4656344820 1.5862364840 0.9269957271
H 1.6397753105 0.8239607365 -2.3496035874
H 1.5205400212 -0.9400401058 -2.2348614384
H 3.5699152481 -1.1559639238 -1.1145653717
H 4.0180075441 1.6370366306 -2.3183280273
H 5.7812996891 0.4992259174 -3.5444813993
H 5.3431846040 -1.1055085716 -2.7193409411
H -1.6670325260 0.9868829684 1.3457910655
