55
CONF240
C -4.4701866728 -3.8838639640 0.3580321837
C -3.7747202082 -3.7488943453 -0.9794250255
O -3.8254265037 -2.3733969383 -1.4611246860
C -2.8843278849 -1.5375691475 -0.9605646119
O -1.9907201364 -1.8689898179 -0.2003894201
N -3.1002357585 -0.2780483671 -1.4540401342
C -2.3482509904 0.8789532957 -1.2201586091
C -1.1669786462 0.8962106049 -0.4725522554
C -0.4638327387 2.0900609075 -0.3353431486
C -0.9703577593 3.2877327116 -0.8427036102
C -2.1611006745 3.2704611448 -1.5681816399
C -2.8286571137 2.0753082329 -1.7767228108
S -0.1059835550 4.8077291132 -0.5130441976
C 0.4584605023 4.4166942178 1.1329465155
C 0.5372547120 5.4053688911 2.1135585066
C 0.9903326125 5.0717888846 3.3857955741
C 1.3315124117 3.7544010316 3.6895911628
C 1.2391229213 2.7651520427 2.7161207601
C 0.8251244380 3.1013587986 1.4310251966
N 0.7690832362 2.1274125263 0.3841236403
C 1.9624030874 1.5731232748 -0.0711894400
O 3.0025817027 1.7385971661 0.5538997196
C 1.9497065839 0.8359472929 -1.3964978311
C 2.9077581336 -0.3504283231 -1.3716650087
N 2.4570339023 -1.3904481451 -0.4404396593
C 3.5698123450 -2.2648160075 -0.0495978488
C 3.0819831387 -3.3126695115 0.9364878818
O 2.0323238028 -4.1080297129 0.3745051164
C 0.9427850302 -3.2652227358 -0.0204896259
C 1.3949279849 -2.2201681775 -1.0252877037
H -5.5083792370 -3.5465276584 0.2902953617
H -3.9552332282 -3.3046872431 1.1288033659
H -4.4685204462 -4.9361638957 0.6592091607
H -4.2887240146 -4.3164144416 -1.7578761091
H -2.7298374200 -4.0663001737 -0.9301397642
H -3.9074591490 -0.1757521945 -2.0528990109
H -0.7806496598 -0.0046343218 -0.0172784380
H -2.5689971719 4.1934491270 -1.9670305450
H -3.7501354414 2.0701436076 -2.3509119062
H 0.2422974409 6.4235593924 1.8808524155
H 1.0571694123 5.8417420789 4.1474635982
H 1.6680064105 3.4952135916 4.6878725043
H 1.5034361093 1.7369559742 2.9354910830
H 0.9482184966 0.5372145570 -1.7036078797
H 2.2980640795 1.5634483227 -2.1428886711
H 3.0260899187 -0.7455275610 -2.3974099936
H 3.8891851049 0.0021627411 -1.0397366097
H 4.0156947930 -2.7716318296 -0.9286397768
H 4.3514431330 -1.6603347919 0.4262071852
H 3.8922765645 -4.0000971540 1.1962669515
H 2.7208095193 -2.8195274262 1.8539594179
H 0.1840478029 -3.9170691836 -0.4619101103
H 0.5150080668 -2.7702466124 0.8655891647
H 0.5344272876 -1.5975634699 -1.2926479230
H 1.7503343126 -2.7251672888 -1.9457009485
