74
CONF48
C -0.9901479786 -1.4931011302 1.2197811537
C -0.6904356564 -2.6491807287 2.1645554029
O -1.5178707111 -2.3544947027 3.3428443417
C -1.8268042494 -1.0308082450 3.3903105832
O -2.4462299397 -0.5656847488 4.3189545093
C -1.2214522416 -0.3455950401 2.1912317748
C -1.9385386289 0.8333724707 1.5273542730
C -3.4232483903 0.5794887937 1.2853940891
C -4.3413542655 0.9370119158 2.2745743930
C -5.6962961475 0.6750479524 2.0847701396
O -6.6934003481 0.9740206349 2.9727211536
C -6.3074537621 1.5433872064 4.2314547104
C -6.1512827224 0.0654039892 0.9096276688
O -7.4786590932 -0.1903406179 0.7078152195
C -5.2302697917 -0.2746915446 -0.0869096423
O -5.7643607139 -0.8471525331 -1.2050459633
C -4.8550255864 -1.1953238974 -2.2569251319
C -3.8716619571 -0.0153262433 0.1037829593
C -1.2155053844 1.1544523855 0.2233337122
C -1.5204051490 2.3940454906 -0.3753311502
C -0.9811391810 2.6657270333 -1.6083102124
C -0.1744256087 1.7488978350 -2.2733251642
O 0.2154840243 2.2563575343 -3.4840692577
C -0.3832640779 3.5679696341 -3.5821903044
O -1.1357105766 3.7924254545 -2.3673585726
C 0.1373997925 0.5337773299 -1.7187965751
C -0.3787332297 0.2393514497 -0.4356917865
C 0.0408922043 -1.0752999514 0.1936253817
O 1.2994330395 -0.9655864619 0.9302709622
C 2.3815490961 -0.4298075770 0.2506757428
O 2.7657056854 -1.3479349855 -0.7846945994
C 3.8588149381 -0.8220259360 -1.5335364290
C 4.1739530438 -1.7393203862 -2.7024300339
O 5.3387221315 -1.2293720610 -3.3681130473
C 6.4571647992 -1.1496314826 -2.4907917825
C 7.6329137345 -0.6241537896 -3.2692592467
O 6.1967066956 -0.2522052095 -1.4104482836
C 5.0936093220 -0.7269573565 -0.6351658844
C 4.7991926247 0.2162768870 0.5135908588
O 5.8782129172 0.3550117625 1.4395755085
C 3.5317183037 -0.2585804527 1.2414108315
O 3.1311293845 0.6950478948 2.2193565403
H -1.9254911765 -1.7076804861 0.6891215758
H -0.9984226040 -3.6269615524 1.7926638844
H 0.3537349396 -2.6720442093 2.4871772630
H -0.2382040237 0.0092902842 2.5403177652
H -1.8595856906 1.7032325346 2.1896197484
H -3.9906997143 1.4050152959 3.1851371116
H -5.6315452286 0.8699040085 4.7705507499
H -5.8255047019 2.5168180609 4.0869071328
H -7.2321388881 1.6695782006 4.7947019081
H -7.9572610639 0.1073950774 1.4961947514
H -5.4703768720 -1.6279377798 -3.0462669455
H -4.3356245285 -0.3081084742 -2.6383797172
H -4.1204224940 -1.9340765509 -1.9148705703
H -3.1608570258 -0.2505633430 -0.6780226958
H -2.1804958251 3.0988357069 0.1202269823
H 0.4071038635 4.3214945902 -3.6612815248
H -1.0662185766 3.5914497750 -4.4377284482
H 0.7678802995 -0.1816319598 -2.2374232250
H 0.1677566599 -1.8353621351 -0.5861117077
H 2.1375870063 0.5445484420 -0.2082447619
H 3.6143816246 0.1834474531 -1.9157424625
H 3.3636217525 -1.7506501248 -3.4355447835
H 4.3537015713 -2.7633575383 -2.3388515210
H 6.6461630054 -2.1537136176 -2.0687305255
H 7.8603322342 -1.3003306026 -4.0962824432
H 8.5065518086 -0.5554973582 -2.6172939146
H 7.4014527443 0.3677197732 -3.6675961251
H 5.3233188738 -1.7339712171 -0.2413500633
H 4.6229081357 1.2244250460 0.1165068274
H 6.1158576565 -0.5276488036 1.7588575278
H 3.7298623850 -1.2394462200 1.7064864078
H 3.9217068033 0.9113302523 2.7341057579
