39
CONF44
C -3.9853705988 -2.2109252265 0.2491339107
C -2.8667984555 -2.3844941313 1.2730427392
C -1.4795512797 -2.1056427603 0.6935842963
N -1.3400070838 -0.7005627841 0.2713267243
C -0.9004645159 0.2398762016 1.3088757707
C 0.6046986792 0.2327984190 1.4837285796
O 1.1737975027 0.7748639535 0.2626917166
C 2.5242547057 0.6577295548 0.1727179269
C 3.3736148195 1.6872431401 0.5947281284
Cl 2.6667756923 3.1190008888 1.2986892922
C 4.7538401825 1.6088929615 0.4594036621
C 5.2891510751 0.4626723228 -0.1134261312
Cl 7.0277424361 0.3397660598 -0.2914631316
C 4.4944329571 -0.5871177717 -0.5552163999
C 3.1186055108 -0.4710731812 -0.4049176042
Cl 2.0860039106 -1.7599381690 -0.9677851784
C -1.3721092840 -0.4203626600 -1.0511792989
O -1.3938219598 -1.2425063452 -1.9571946071
N -1.4190906222 0.9818595966 -1.3898766236
C -2.3157634692 1.9450107694 -0.9571445339
C -1.9937543079 3.0773168389 -1.6536497905
N -0.9230957665 2.8420868972 -2.4973983691
C -0.6135821555 1.5754046878 -2.3249826341
H -4.0147012777 -1.1854918409 -0.1346742072
H -3.8436361293 -2.8849077124 -0.6021612135
H -4.9602805397 -2.4258691322 0.6963653699
H -3.0409119869 -1.7320700835 2.1377877146
H -2.8600554845 -3.4126628217 1.6540687736
H -0.7047164534 -2.3157919070 1.4387367116
H -1.2921567785 -2.7426077736 -0.1734912153
H -1.3648855068 -0.0540388280 2.2552637663
H -1.2311054949 1.2548034973 1.0859674079
H 0.8824048527 0.8693808208 2.3327502712
H 0.9922266567 -0.7797200159 1.6476014374
H 5.3886296249 2.4208116438 0.7914282284
H 4.9287986456 -1.4696240632 -1.0079421242
H -3.0943683680 1.7228240776 -0.2433621652
H -2.4777348859 4.0428103431 -1.6037236084
H 0.1829850577 1.0302549409 -2.8140435943
