45
CONF20
C 1.6997254778 -3.1356991972 0.7526103965
O 2.2613182449 -2.3781112641 1.8520301211
C 2.3291769803 -1.0488118606 1.7226044243
C 2.9417493457 -0.3247075183 2.7361810175
C 2.9917978548 1.0548939592 2.5416570098
O 3.5827145383 1.7837935820 3.4947084094
C 3.6471003769 3.2179447915 3.3058085233
N 2.4862628261 1.6652241358 1.4644258401
C 1.9160376152 0.8589729260 0.5677991491
N 1.3910075368 1.5157036874 -0.5423952714
C 0.6544807034 1.0417714776 -1.6163222296
O 0.2341520704 1.8007353063 -2.4800811433
N 0.4332396577 -0.3222390783 -1.6300508415
S -0.6999290329 -1.0149568850 -2.6718027299
O -0.2365246483 -0.8805945214 -4.0521587111
O -0.9409167085 -2.3461351248 -2.1089894057
C -2.1606320341 -0.0263760704 -2.4667457272
C -2.9676719258 0.1128212688 -1.3324494949
C -4.0118128772 0.9468050273 -1.7683938696
N -3.8606180932 1.2931779246 -3.0468222647
N -2.7350236369 0.7018138064 -3.4652731823
C -2.2924282299 0.9258750298 -4.8413549291
C -2.8311186852 -0.3893097115 0.0142993372
N -1.7216659746 -0.8916687904 0.5687081936
N -2.1248095565 -1.1410575718 1.8054632656
C -1.2562884020 -1.7027684616 2.8314542691
N -3.3915123024 -0.8238535135 2.0308220869
N -3.8608480217 -0.3445351748 0.9049490606
N 1.8101801718 -0.4686999637 0.6319255806
H 1.7684228799 -4.1764722145 1.0665217106
H 2.2808096133 -2.9719973333 -0.1588915631
H 0.6547761591 -2.8600030168 0.5865215389
H 3.3617782646 -0.8001583003 3.6121446183
H 4.1647853850 3.5917113157 4.1884662434
H 2.6417016805 3.6410586741 3.2441563136
H 4.2099129408 3.4596685030 2.4011629857
H 1.5219926230 2.5192327307 -0.5493754478
H 0.6985852750 -0.8510000055 -0.7830858757
H -4.8526113389 1.3111769166 -1.1950499959
H -2.2891098572 -0.0133833777 -5.3965688627
H -3.0042487117 1.6215479536 -5.2837974984
H -1.2900451711 1.3565888117 -4.8420119573
H -0.3825319103 -1.0580956228 2.9508963878
H -1.8258319195 -1.7430465004 3.7592769238
H -0.9455294798 -2.7068363420 2.5343921967
