47
CONF10
C -3.3078497150 2.5570270957 1.7351626292
C -1.9680369739 2.0338846682 1.2659286990
C -1.8249125975 0.5756861387 0.9813198648
C -1.2507195953 1.1388931573 2.2912355178
C 0.1913304338 1.1181844348 2.5618563139
O 0.6884401794 1.1112768846 3.6700988205
O 0.9464140995 1.0755644798 1.4227651334
C 2.3675907681 0.8948347434 1.6068227295
C 2.9694192104 2.1573100636 2.0442773333
N 3.4335789189 3.1569693056 2.3873119152
C 2.9222263934 0.3838499138 0.2921752109
C 2.2361302951 -0.6670405206 -0.3153104963
C 2.7003904190 -1.1674682720 -1.5259268044
C 3.8599105601 -0.6637036931 -2.1132222103
C 4.5455102904 0.3648696440 -1.4806888346
C 4.0769534592 0.9053007691 -0.2838626210
O 2.0818735317 -2.2185724408 -2.1686114534
C 0.7007314832 -2.3423914671 -2.0941666163
C -0.1437142437 -1.2433030688 -2.2406262380
C -1.5203034928 -1.4465082460 -2.2316206995
C -2.0480383324 -2.7287176236 -2.0903149073
C -1.1883906330 -3.8159564052 -1.9563510804
C 0.1916870103 -3.6284468652 -1.9537301625
C -2.9531906897 -0.3742904578 1.0394359011
C -2.7798843830 -1.6759571623 1.2615355006
Cl -4.0868944852 -2.8253628064 1.2636834300
Cl -1.2167036141 -2.3700500212 1.5765803230
C -1.1913023665 3.0203236301 0.4239844898
H -3.9494026685 2.7653348896 0.8716653082
H -3.1702399491 3.4902886433 2.2901601157
H -3.8237441216 1.8454838935 2.3852282881
H -1.0521417390 0.3156909052 0.2597213708
H -1.8243038123 0.9429341950 3.1909793078
H 2.5304702278 0.1600239868 2.4069088064
H 1.3414502421 -1.0771236416 0.1399348795
H 4.2044405196 -1.0778908179 -3.0546845202
H 5.4456243161 0.7658777450 -1.9347631774
H 4.6094079587 1.7250924637 0.1861828592
H 0.2694172758 -0.2472276050 -2.3606700463
H -2.1833345913 -0.5938701064 -2.3424580443
H -3.1226330783 -2.8777074541 -2.0829824362
H -1.5899457040 -4.8182816085 -1.8449533651
H 0.8753543548 -4.4640074471 -1.8460227892
H -3.9659808286 -0.0221264358 0.8651161795
H -1.8172033239 3.3395050349 -0.4163314703
H -0.2720984978 2.5932054929 0.0219513909
H -0.9373810136 3.9085927184 1.0123223603
