44
CONF24
C 3.6674439845 -0.9584420129 -1.4006553987
C 2.9002173904 0.3104380536 -1.5619565736
N 1.8549604159 0.5129608583 -0.7462542553
C 1.1905119886 1.6685560480 -0.9135486522
N 1.4967509696 2.5845666374 -1.8408780122
C 2.5412222483 2.2665798096 -2.6025813040
N 3.2916543799 1.1590556771 -2.5128829652
O 2.9246736971 3.1026043562 -3.5622688273
C 2.1700093728 4.3297137353 -3.7272856315
N 0.1133331041 1.9734103851 -0.0953331564
C -0.5902307988 3.2432075094 -0.3605171686
C -0.3606154639 1.2106279540 1.0044522730
O -1.3107334039 1.5874929893 1.6724405346
N 0.3123366202 0.0418267224 1.2564269387
S -0.1968896256 -1.0608739526 2.4390494508
O 0.6416322473 -2.2416575563 2.1860991482
O -0.1637474001 -0.4070255640 3.7495154285
C -1.9073792095 -1.4795779348 2.0704086349
C -2.8917391781 -0.9013280812 2.8652848558
C -4.2164687609 -1.2903213870 2.7005933406
C -4.5434203901 -2.2696001935 1.7678448865
C -3.5506905600 -2.8573488146 0.9914064004
C -2.2198389715 -2.4584725621 1.1196641510
C -1.2237144015 -3.1307954368 0.2278793640
O -1.0845369983 -4.3333997955 0.1705665890
O -0.5804440513 -2.2468849817 -0.5441058377
C 0.4153901005 -2.8092015316 -1.4389166518
H 3.3927903831 -1.4662206272 -0.4757554897
H 3.4507406030 -1.6195195754 -2.2475624558
H 4.7400226204 -0.7502663495 -1.4183413670
H 2.6533751964 4.8421211784 -4.5578458224
H 2.2240110285 4.9321337637 -2.8177742140
H 1.1282069138 4.1045785553 -3.9660339002
H -0.9357873557 3.2626798228 -1.3954317558
H 0.0818241148 4.0876664430 -0.1911852322
H -1.4376884645 3.3025258254 0.3165962314
H 1.0424390749 -0.2477834006 0.5737082791
H -2.6178082669 -0.1623711782 3.6078107385
H -4.9876790878 -0.8358451704 3.3129265881
H -5.5745648487 -2.5840788454 1.6465048555
H -3.7998111213 -3.6269819202 0.2683139499
H 0.7793991019 -1.9670943581 -2.0249361834
H 1.2234742542 -3.2551747708 -0.8538109260
H -0.0426315472 -3.5624797206 -2.0831536456
