23
CONF10
C -4.4518904880 -0.3577039542 -0.2217532310
C -3.6458783979 -1.1793647845 0.5641800850
C -2.2763912141 -0.9501423237 0.6469044661
C -1.7235075949 0.1130614004 -0.0616780596
C -2.5170073903 0.9417039933 -0.8495400376
C -3.8850560412 0.6991742933 -0.9299352658
N -0.3079774020 0.3523675725 -0.0105859258
C 0.3262198643 0.5500661060 1.2468000339
O -0.3199842490 0.5059135523 2.2946479864
C 1.7299591682 0.8036719635 1.1341277634
C 2.3840423846 0.8883222798 -0.0806877155
C 1.5668821711 0.6931693777 -1.2427032158
N 0.2927537624 0.4413584357 -1.2020337416
N 3.6945603555 1.1621447253 -0.2293693654
Cl 2.6076678277 1.0483182939 2.6182376551
H -5.5195163609 -0.5423854840 -0.2831214201
H -4.0820826869 -2.0089387295 1.1112250649
H -1.6418527808 -1.5899725619 1.2485733314
H -2.0644311923 1.7655714687 -1.3908847376
H -4.5075319511 1.3427787402 -1.5431159893
H 2.0127368222 0.7485123698 -2.2323879305
H 4.3035395914 1.2043429185 0.5715665082
H 4.1196698979 1.0984397156 -1.1393365450
