49
CONF89
C -3.6991203217 -1.8174531544 3.2750087169
C -3.7057368874 -0.7082429926 2.2449437041
C -2.3801314401 -0.0254044701 1.8360603584
C -3.4631054731 0.7131045853 2.6539049506
C -4.1582556203 1.8454102174 1.9222823290
C -3.2075078251 1.0633063235 4.1045190174
C -1.0886292667 -0.4107159968 2.3968004201
O -0.8123654055 -0.7778229914 3.5216709000
O -0.1152254207 -0.3096620456 1.4191546427
C 1.2262647188 -0.6337616744 1.8509902311
C 1.3291710076 -2.0770852621 2.1070332005
N 1.4299163734 -3.2154862431 2.2751200891
C 2.1796463190 -0.2036472995 0.7619855402
C 3.1081478446 0.8022247683 1.0186639161
C 3.9703842897 1.2104595958 0.0028703716
C 3.9095575916 0.6289383484 -1.2576566940
C 2.9662948620 -0.3712723197 -1.4996206253
C 2.1037136310 -0.7973279561 -0.4971628715
O 2.8895173417 -1.0385818427 -2.7035274798
C 3.1510133093 -0.3423653201 -3.8764499075
C 2.5814827586 0.9046032185 -4.1223155794
C 2.8188774128 1.5226633615 -5.3464868095
C 3.6055703667 0.8996249399 -6.3146178339
C 4.1578033372 -0.3525073932 -6.0539315462
C 3.9363818018 -0.9798222615 -4.8300890609
C -4.6468680505 -1.0214320358 1.0970667055
H -3.4472062227 -2.7686009201 2.7933401080
H -4.7051911778 -1.9143324389 3.6991719777
H -2.9947391240 -1.6561276490 4.0884429212
H -2.3241476209 0.2647078630 0.7920821681
H -5.1660071533 1.9868884961 2.3301003066
H -3.6019816520 2.7768703940 2.0713852134
H -4.2435668769 1.6737577189 0.8488101737
H -2.6690668397 0.2923950243 4.6516875400
H -4.1681186025 1.2387177902 4.6023891763
H -2.6264800843 1.9901187141 4.1650455109
H 1.4520888516 -0.1116726942 2.7871605442
H 3.1579112256 1.2610461935 2.0006711184
H 4.7034309905 1.9866952616 0.1966798926
H 4.5873801280 0.9420350093 -2.0442293684
H 1.3825577336 -1.5807195198 -0.7090129964
H 1.9620930547 1.3804428884 -3.3689661049
H 2.3771224458 2.4940094351 -5.5458987505
H 3.7839279257 1.3868215286 -7.2674926479
H 4.7701673203 -0.8454869487 -6.8024331223
H 4.3618569204 -1.9530069157 -4.6084399879
H -5.6817577957 -1.0331766981 1.4585930852
H -4.4198979428 -2.0147258348 0.6957547112
H -4.5771731608 -0.3044009932 0.2786108529
