39
CONF10
C 1.2186459334 4.3521167056 0.6435928266
C 1.9532862370 3.0690813146 0.8359999728
C 2.0463567839 1.9417412386 0.0530407758
C 2.8662591133 0.9014743530 0.6079890144
C 3.4054081136 1.2665755702 1.8114847647
S 2.8964600584 2.8435542630 2.2816161203
C 3.0119940658 -0.4704163354 0.0733226007
O 2.1620328867 -1.0692777051 -0.5471441924
O 4.2030134654 -1.0039433054 0.4227608751
C 4.3917179590 -2.3712077516 -0.0030931726
S 1.3804586266 1.8776373221 -1.6007609485
O 0.8520199138 3.1944910809 -1.9365936301
O 2.3388508721 1.1970415213 -2.4684371632
N 0.0579634611 0.7859231630 -1.5129902279
C -0.9175450656 0.9575270197 -0.5543510698
O -1.0639309656 1.9370539438 0.1382770610
N -1.7825268287 -0.1642052816 -0.4584272949
C -1.7117681252 -1.3807139609 -1.1493553458
O -0.9139971836 -1.7538697183 -1.9918364811
N -2.7949993413 -2.0892787930 -0.6363416520
C -3.4093322087 -1.2796087860 0.2864595711
N -2.8494089922 -0.1200202298 0.4379135515
O -4.4833426697 -1.7368623676 0.9183536313
C -5.0605636911 -0.8038949886 1.8650622965
C -3.1652979333 -3.4333323567 -1.0392687442
H 1.6487545792 4.9264595513 -0.1811804831
H 0.1767352150 4.1431936092 0.3905664425
H 1.2586606159 4.9558366225 1.5533756489
H 4.0418146219 0.6682532196 2.4472432892
H 5.3898393603 -2.6444952141 0.3377750839
H 3.6350381424 -3.0182103342 0.4484908630
H 4.3198937691 -2.4393593867 -1.0912328542
H 0.2565443286 -0.1600619024 -1.8496634746
H -5.3652411415 0.1103393201 1.3492275400
H -5.9207962313 -1.3219219498 2.2859450824
H -4.3302290960 -0.5594900390 2.6407487803
H -3.1353855112 -4.1124849236 -0.1828017420
H -2.4383627951 -3.7541215417 -1.7883107013
H -4.1690190300 -3.4415237514 -1.4731961992
