41
CONF124
C -4.0163829022 -0.8877608512 3.1718705250
C -3.9864399087 0.3792595984 2.3193149277
N -3.6444643665 0.1566223066 0.9114093233
C -4.7408802313 -0.0874584715 -0.0242903458
C -4.7226861809 -1.4878191124 -0.6431261092
O -4.8381934111 -2.5117075088 0.3384178400
C -2.3484076813 0.2655432308 0.4717579633
C -2.0383321829 0.3556204865 -0.9066635866
C -0.7312706901 0.4790397048 -1.3284667719
C 0.3325662342 0.5104986485 -0.4155701822
C 0.0372712789 0.4154903171 0.9577204789
C -1.2624658555 0.2946181936 1.3892971057
N 1.6052975827 0.6311132349 -0.9614049106
N 2.5562183199 0.6616266230 -0.1253725507
C 3.8311129648 0.7867611212 -0.7071854961
C 4.9024903921 0.8136621602 0.1971136277
C 6.2049712991 0.9342324311 -0.2556114359
C 6.4265848742 1.0290165601 -1.6255023317
C 5.3789184258 1.0051750380 -2.5464849569
C 4.0816384637 0.8836671825 -2.0877567764
N 7.8061779476 1.1584788767 -2.1173667820
O 8.7088831872 1.1689623059 -1.2860530964
O 7.9727967795 1.2442250799 -3.3303077657
H -3.0554969813 -1.4108945087 3.1383901258
H -4.7959108651 -1.5719731929 2.8256263226
H -4.2259000074 -0.6297428945 4.2149741825
H -3.2832840109 1.1075090044 2.7364634787
H -4.9709297215 0.8597360511 2.3446490648
H -4.7525717477 0.6698349512 -0.8237024424
H -5.6750031256 0.0210335074 0.5336071057
H -5.5955320548 -1.5845021179 -1.2979730487
H -3.8240954143 -1.6361751707 -1.2567090045
H -3.9934783955 -2.5688630548 0.7996266062
H -2.8248737145 0.3551316735 -1.6493180730
H -0.5012288435 0.5627133070 -2.3858376582
H 0.8519651320 0.4272365272 1.6722779339
H -1.4472142854 0.1983950834 2.4519278052
H 4.6839371548 0.7376821883 1.2566873539
H 7.0454435007 0.9566885013 0.4261795298
H 5.6004583235 1.0822380810 -3.6036893769
H 3.2483117177 0.8622434119 -2.7789191068
