28
CONF24
O -3.6671622168 0.8384264362 1.6392024909
C -2.3444617195 1.0427863174 1.1389341576
C -2.1242874126 0.2753091650 -0.1626260496
O -0.8568279794 0.6823967099 -0.7398140570
C 0.0161735978 -0.4457036370 -0.8217369966
C -0.5397752676 -1.4703021130 0.1626246801
C -2.0378381732 -1.2457707344 0.0281783255
O -2.4733620816 -1.9580040340 -1.1363149582
N 1.3825047839 0.0078221478 -0.5221854676
C 1.6230212872 0.7597908543 0.5982577889
C 2.8509129983 1.2136630448 0.9314787647
C 3.9803549698 0.9090690757 0.0924544760
O 5.1444944491 1.2581841551 0.2825345357
N 3.6516979729 0.1377623007 -1.0301131896
C 2.4120460030 -0.3455104655 -1.3957659246
O 2.2436922424 -1.0286862383 -2.3970689788
H -4.2821472516 1.2851376309 1.0431760355
H -2.1360103726 2.1075815126 0.9672228177
H -1.6600172402 0.6803022076 1.9140844738
H -2.9215575002 0.5288033850 -0.8749829285
H 0.0445637252 -0.8348793408 -1.8425820526
H -0.2111164937 -1.2392593832 1.1808235524
H -0.2449215243 -2.4922350258 -0.0829551082
H -2.5981899575 -1.5657706127 0.9151473341
H -3.4146899223 -1.7781045764 -1.2581303144
H 0.7490587628 0.9829065590 1.1996247651
H 3.0019771567 1.8089274924 1.8214428762
H 4.4118677831 -0.1146422141 -1.6509110487
