27
CONF12
C -3.1036277629 -0.4250635257 -0.4143600982
C -2.0112957499 -1.4595731265 -0.1153286073
N -0.7988702406 -0.6937779982 -0.4122707325
C -1.0969973359 0.3025679199 -1.2992287659
N -0.0935381859 0.9273207758 -1.8896181805
N -0.4064690997 1.9981722061 -2.7124353339
O -1.5561607851 2.4751664178 -2.7478178717
O 0.5267193354 2.4367246637 -3.3618555594
N -2.4464292968 0.3942488534 -1.4340288858
C 0.5417924093 -1.2776202233 -0.3404951231
C 1.4567936229 -0.5062063125 0.5772314175
C 2.4770429185 0.2942872601 0.0710941898
N 3.3167092313 0.9942635009 0.8441315905
C 3.1464113678 0.9200367801 2.1449310914
C 2.1587587932 0.1669111563 2.7787933612
C 1.3058966246 -0.5584538123 1.9635196339
Cl 4.2586184635 1.8457468633 3.1493737487
H -3.3401330808 0.1678619238 0.4805455679
H -4.0203786545 -0.8807825589 -0.7960422735
H -2.0255660479 -1.7989127011 0.9238915617
H -2.0953326008 -2.3342039643 -0.7799989707
H -2.8131095250 1.2670943533 -1.7880154745
H 0.4251945156 -2.3026381245 0.0288752743
H 0.9776627413 -1.3247079418 -1.3451376425
H 2.6172325653 0.3883507462 -1.0034189735
H 2.0760388135 0.1504867976 3.8584141113
H 0.5230368576 -1.1672996327 2.4086273473
