34
CONF77
C -3.4747280801 -1.5186782387 -0.7872248884
C -2.4778492589 -0.4891253365 -1.2556885782
O -2.0886688724 0.3016533973 -0.0761297681
P -1.0350089936 1.4899055241 -0.1957632637
S -1.1592822411 2.6876823427 -1.7099359455
O -1.0304241452 2.1061261405 1.2692352222
C -1.7624679548 3.3381198711 1.6022567852
C -3.2472074950 3.0833405472 1.7064416765
O 0.3428071178 0.5536837134 -0.1208821816
N 1.5104193988 1.3138209898 -0.1449050008
C 2.5705723644 0.5701071475 -0.1628764504
C 3.7647253686 1.3680381055 -0.2178032155
N 4.7459225176 1.9792711661 -0.2548454149
C 2.7325000724 -0.8936471081 -0.1582062270
C 3.8214406149 -1.4418039680 -0.8530451396
C 4.0136080172 -2.8164016843 -0.8794412807
C 3.1397413110 -3.6555393978 -0.1921178088
C 2.0723698824 -3.1140476737 0.5217531344
C 1.8586582512 -1.7418647163 0.5390045389
H -3.7911417913 -2.1209481380 -1.6439879057
H -3.0294899627 -2.1825342572 -0.0414681331
H -4.3568188304 -1.0366515421 -0.3571375422
H -1.5770326783 -0.9530402781 -1.6703786512
H -2.9077182711 0.1940840150 -1.9941464947
H -1.5246637239 4.0916615621 0.8454715134
H -1.3315272479 3.6394605399 2.5585868967
H -3.4579256200 2.2944283402 2.4336541931
H -3.6705870826 2.7996836453 0.7380808756
H -3.7406059846 4.0026564362 2.0374561276
H 4.5092783810 -0.7913248873 -1.3844047411
H 4.8503268157 -3.2311607998 -1.4315156104
H 3.2947565734 -4.7295581235 -0.2055126100
H 1.4005251990 -3.7642604406 1.0723371494
H 1.0354961420 -1.3331361954 1.1090503348
