39
CONF78
C 5.4712809423 -0.5539595738 0.9863965654
C 4.2177447666 0.2131535562 1.4024464244
C 3.2912682791 -0.6290030042 2.2779481116
C 2.0446375333 0.1202639094 2.7486982116
N 1.1750615738 0.5413464024 1.6470133632
C 0.3012337699 -0.3081518330 1.0874505258
O 0.1315826570 -1.4761229276 1.4367982362
N -0.4678493135 0.2436545099 0.0196453183
C -0.7964615468 1.5848850013 -0.2392073539
C -0.6815473501 2.7506283198 0.5083827147
C -1.1732378850 3.9215123276 -0.0700434941
C -1.7717835082 3.9195528951 -1.3353976777
C -1.9141744989 2.7415298417 -2.0629770429
C -1.4255039137 1.5650330718 -1.5015098927
N -1.4982074869 0.2713018288 -2.0024497086
C -0.9381949699 -0.4784581051 -1.0925668106
N -0.7717037070 -1.8399689432 -1.1168483033
C -0.9520980873 -2.6608596453 -2.2146953930
O -1.2447013963 -2.3162554047 -3.3382401862
O -0.7377075280 -3.9359950218 -1.8218203619
C -0.8758050812 -4.9228434413 -2.8715963226
H 6.1247413876 0.0597230756 0.3588578414
H 5.2071490458 -1.4535394055 0.4197051916
H 6.0449843952 -0.8691641223 1.8648657657
H 3.6780503849 0.5419494805 0.5050450354
H 4.5024184869 1.1224744388 1.9486016612
H 2.9851747481 -1.5334567073 1.7375234702
H 3.8338308782 -0.9616720442 3.1723853982
H 2.3291888351 1.0268907046 3.2929886681
H 1.4519107640 -0.5070628861 3.4199108716
H -0.2537851198 2.7723271914 1.5038362130
H -1.0941843278 4.8514214864 0.4831991754
H -2.1422482806 4.8516489790 -1.7496468053
H -2.3988195942 2.7273303613 -3.0336256363
H -0.6677359755 -5.8782245494 -2.3918698103
H -0.1560109887 -4.7291485916 -3.6703520527
H -1.8916997629 -4.9077613323 -3.2730877460
H 1.3961264124 1.4021277640 1.1687546533
H -0.4801786836 -2.2613328496 -0.2382026155
