52
CONF207
C 0.8315074379 -2.9189966853 1.7701742837
N 2.0975605603 -2.3554447408 1.2868631758
C 3.0576367399 -2.3422429435 2.4069098797
C 4.4284762866 -1.8436305687 1.9744247412
C 4.3111417922 -0.4384013409 1.3951639092
C 3.2662225165 -0.4267459802 0.2834532767
C 1.9181347637 -0.9902604407 0.7476390563
C 0.9063638777 -0.9743696380 -0.4027001178
C 0.6526789618 0.4475806792 -0.9189592256
N -0.6441363754 0.5472073315 -1.6006166058
C -0.7653530783 1.4211810288 -2.7043292240
C 0.1491390520 2.4521455755 -2.9519888489
C 0.0190853850 3.2549990735 -4.0828564223
C -1.0429846581 3.0760042393 -4.9632842742
C -1.9896814652 2.0885980557 -4.7010146546
C -1.8423808244 1.2621606612 -3.5916368975
S -2.9954042963 -0.0641563532 -3.3031996509
C -3.0147562247 0.0083767376 -1.5275877485
C -1.8090055428 0.2874519822 -0.8561672308
C -1.8113919316 0.2649642576 0.5432739844
C -2.9835845194 -0.0516783193 1.2212719447
C -4.1705514315 -0.3346100375 0.5648190470
C -4.1820061672 -0.2765509263 -0.8271019904
S -2.9261766952 -0.1720758636 3.0375346516
O -4.2739453849 -0.7420237060 3.4870407815
C -3.0010913762 1.6303111938 3.3803693365
H 1.0386519597 -3.8503555065 2.3058787511
H 0.3034548316 -2.2351908204 2.4637834702
H 0.1574371268 -3.1589055503 0.9441530635
H 3.1326807646 -3.3641541620 2.7961511205
H 2.6804986843 -1.7044605461 3.2339248599
H 4.8391209628 -2.5248297878 1.2176780024
H 5.1066078200 -1.8598024602 2.8353370525
H 5.2769912789 -0.0882629764 1.0137025032
H 4.0045842866 0.2572892500 2.1885272404
H 3.1228611374 0.5962815022 -0.0808980768
H 3.6169837611 -1.0295853751 -0.5659689973
H 1.5237632943 -0.3301450136 1.5536897085
H 1.2727516445 -1.6019504933 -1.2242787475
H -0.0404918924 -1.4024428643 -0.0710628958
H 0.7330467998 1.1833436747 -0.1020426864
H 1.4166027824 0.7052978287 -1.6529556453
H 0.9646919079 2.6371724654 -2.2633928076
H 0.7504621693 4.0366277297 -4.2618985337
H -1.1466533808 3.7050446015 -5.8409039224
H -2.8359093506 1.9441606754 -5.3656320031
H -0.9059466087 0.4753812513 1.1031727493
H -5.0619098632 -0.5936087002 1.1253807933
H -5.0972032664 -0.4816688633 -1.3737816159
H -3.9141202799 2.0269603232 2.9287850085
H -3.0131639455 1.7430623318 4.4671792937
H -2.1112910270 2.1049491077 2.9579777408
