44
CONF119
C 2.5965864312 2.0792181202 -1.0256179084
C 2.1180544487 0.9611852870 -0.1052050561
C 3.2813845749 0.0527337583 0.4429890054
N 2.7070568900 -1.2609934985 0.6501983103
C 1.6795572065 -1.7225287961 -0.3029351843
S 1.0213238944 -0.2070834586 -1.0932283935
C 0.9457296356 -2.4053207882 0.9067335092
C 2.0181483005 -1.7052835645 1.7677426567
O 2.2009026084 -1.5408583169 2.9513710798
N -0.3864864175 -1.9869471771 1.2298082701
C -1.4114092607 -2.2491378264 0.3921244401
O -1.2648866205 -2.8636162807 -0.6661089378
C -2.7732004018 -1.6747936572 0.8145086549
C -2.9407562144 -0.3466793356 0.0992363532
C -2.5007823839 0.8496009439 0.6687610418
C -2.6011984717 2.0512773710 -0.0249773493
C -3.1372832207 2.0647332588 -1.3135727304
C -3.5797705097 0.8765879232 -1.8975461614
C -3.4811690972 -0.3141269659 -1.1890617051
O -3.2585873240 3.2109978952 -2.0472880493
N -2.8428098546 -1.5124959940 2.2693906075
C 4.4948612960 0.0294311760 -0.4716303076
O 4.3967626777 -0.8979131031 -1.4363836504
O 5.4316108056 0.7875829343 -0.3486213401
C 1.3342418654 1.5394342687 1.0733296171
H 3.2620889479 2.7492180362 -0.4713775743
H 1.7402853082 2.6642236263 -1.3726964267
H 3.1277558012 1.6941860543 -1.9000685143
H 3.6193576152 0.4534704212 1.4034339963
H 2.0410541265 -2.4130273368 -1.0665900520
H -0.5799717321 -1.4667457616 2.0773913105
H -3.5157243591 -2.3770402554 0.4068174777
H -2.0684351400 0.8472675604 1.6640347367
H -2.2595636261 2.9776640676 0.4297193320
H -4.0035300789 0.8982962573 -2.8965125265
H -3.8315553575 -1.2351969258 -1.6463983901
H -2.9214759871 3.9582200003 -1.5345359962
H -3.6948597652 -1.0141323713 2.5063424713
H -2.9138358636 -2.4263147665 2.7063689248
H 0.4547027119 2.0745462464 0.7063126756
H 0.9929262160 0.7602367929 1.7602715163
H 1.9680027325 2.2416160790 1.6269375199
H 1.0356204906 -3.4975486403 0.8665577942
H 5.1901762709 -0.8447299707 -1.9985919866
