55
CONF43
C 3.6986606918 -0.6193843364 -5.4457269318
O 2.3990656359 -0.3577973289 -4.9279215177
C 2.2036007826 -0.5494308803 -3.5911575437
C 3.1863290091 -0.9845755583 -2.7019699675
C 2.8601722700 -1.1463053209 -1.3571386905
C 1.5805725645 -0.8795576438 -0.8798437758
C 0.6030573296 -0.4496561500 -1.7866421785
C 0.9114147610 -0.2854237748 -3.1245705981
C 1.2952866679 -1.0438071509 0.5887446838
S -0.2101642949 -2.1279837369 0.7780507427
C -0.8322400487 -1.6751724550 2.3840736654
C -0.9094077409 -2.6565929683 3.3774077685
C -1.4836868464 -2.3793450199 4.6110426269
C -1.9539108148 -1.0969921480 4.8795449433
C -1.8638227643 -0.1073171627 3.9105219378
C -1.3248159079 -0.3831646858 2.6508722733
N -1.3031118039 0.6480312692 1.6751584879
C -2.5791130802 1.2730684350 1.3030294489
C -3.3811964644 0.3879235256 0.3493258093
N -2.7264074906 0.1906688511 -0.9372867972
C -3.2677683621 -0.9738646440 -1.6289215951
C -2.8033424050 1.3792089682 -1.7817153319
C -0.1718821320 1.0298445248 0.9967285995
O -0.1558331703 1.9312651908 0.1750916206
C 1.1058597752 0.2677640820 1.3700464133
O 2.2482244024 1.0725300083 1.0565936074
C 2.3631205438 2.2088684566 1.7988983008
C 3.4705943438 3.0701487029 1.2713169475
O 1.6447673723 2.4657764334 2.7349236067
H 3.6430908741 -0.4055810608 -6.5139798736
H 3.9833894199 -1.6696497391 -5.2989432525
H 4.4518253481 0.0318326292 -4.9828297106
H 4.1933347396 -1.2030025989 -3.0345599278
H 3.6294406736 -1.4815044031 -0.6668630139
H -0.4052518566 -0.2453185083 -1.4352876829
H 0.1636428233 0.0506291472 -3.8350440881
H 2.1408390197 -1.5637919280 1.0522798696
H -0.5169642317 -3.6446382115 3.1617074301
H -1.5449006853 -3.1560861270 5.3658778343
H -2.3742464798 -0.8597352692 5.8511982984
H -2.1966577299 0.9013988130 4.1308200672
H -2.3502544814 2.2450054252 0.8620074967
H -3.1716736070 1.4403425743 2.2072876024
H -3.5096547664 -0.5939765570 0.8234839569
H -4.3956413653 0.8271094049 0.2394202943
H -3.1296636289 -1.8670998499 -1.0110595412
H -2.7240665582 -1.1288514902 -2.5672182747
H -4.3447893811 -0.8740134552 -1.8702460826
H -3.8475992573 1.6645436881 -2.0195283763
H -2.3004775311 2.2213815519 -1.3001407441
H -2.2801869611 1.1877750980 -2.7245127851
H 1.1035063744 0.0562392186 2.4444274152
H 3.7470123581 3.8106832630 2.0208027454
H 4.3320199261 2.4675807066 0.9764443018
H 3.0999023468 3.5800015129 0.3759790993
