50
CONF76
C 1.0619740990 -0.1878235392 -1.5596521376
C -0.4210214116 -0.1997168402 -1.8449958632
C -1.1053500185 -1.4691746600 -2.3139707364
C -1.3831399100 -0.9281165735 -0.9046630226
C -0.8701321404 -1.5601557592 0.3172519321
O 0.0254423504 -2.3666006370 0.4376685550
O -1.5447240144 -1.0445424462 1.3988519754
C -0.9934061280 -1.4115789750 2.6758470739
C -2.0389972250 -1.1168813489 3.6575039564
N -2.8322067726 -0.8835711631 4.4633413692
C 0.2792494767 -0.6424770578 3.0057357732
C 0.5993842987 0.5122055223 2.2990343367
C 1.7695711614 1.1952830732 2.6253535067
C 2.6011099281 0.7431871958 3.6485587852
C 2.2608154449 -0.4113466597 4.3424997734
C 1.1007529113 -1.1133251445 4.0270722451
O 2.2129475027 2.2997404197 1.9341808053
C 1.3269504990 3.0642377571 1.1875055353
C 0.1356534289 3.5413415486 1.7281569651
C -0.6715957639 4.3678090860 0.9519296110
C -0.2871957494 4.7246624101 -0.3398240808
C 0.9160641967 4.2514025981 -0.8573397876
C 1.7282956670 3.4141664018 -0.0969938898
C -0.3511622524 -2.7064065283 -2.5247668305
C -0.5371547385 -3.5590368978 -3.5371603077
C -1.5796476211 -3.3681264238 -4.6148022356
F -1.5248547666 -4.2988201775 -5.5809921561
F -1.4442383212 -2.1584840401 -5.2195687387
F -2.8371976088 -3.4009348341 -4.0992545413
Cl 0.4390759329 -5.0039769530 -3.6808390109
C -0.9416543579 1.1001080987 -2.4144245789
H 1.6088483655 -0.0406621658 -2.4968642543
H 1.2951417960 0.6521130832 -0.8964156606
H 1.4216460399 -1.1019667149 -1.0877408134
H -1.9465343544 -1.2991345625 -2.9764599196
H -2.3499038520 -0.4530602872 -0.7796875913
H -0.7897621779 -2.4896190170 2.7028157334
H -0.0399180138 0.8698198006 1.5009381792
H 3.5070024053 1.2933623398 3.8791412545
H 2.9100894759 -0.7697113940 5.1345240428
H 0.8400185191 -2.0185878979 4.5666334248
H -0.1519478215 3.2725220363 2.7392834451
H -1.6018795953 4.7427859849 1.3668835746
H -0.9209976418 5.3717065488 -0.9371379132
H 1.2248530067 4.5266947218 -1.8609149889
H 2.6674856537 3.0335212521 -0.4847500730
H 0.4218515482 -2.9497559621 -1.8055180256
H -0.4111729931 1.3380093117 -3.3429181314
H -2.0124481638 1.0479059171 -2.6288841293
H -0.7659803896 1.9160099417 -1.7041724246
