50
CONF87
C 2.8232611139 -0.6935981503 -2.5215449575
C 2.5247412127 -0.6482447489 -1.0421498662
C 1.2583674615 -1.0393848083 -0.6018715232
C 0.9200901054 -0.9173293788 0.7571820474
C 1.7881834539 -0.3680993553 1.6691765437
C 3.0767683696 0.0375395435 1.2698293212
C 3.4735390409 -0.1764642583 -0.0868793081
C 4.8778100033 0.0858085577 -0.3241214356
N 5.6391790240 0.6955681285 0.5776740641
C 5.0852514293 0.9856391936 1.7797398151
N 3.8834670263 0.6221424316 2.2019581806
N 5.8674767810 1.7299558187 2.6246613354
N 5.5137977242 -0.2863337033 -1.4664879045
C 0.2384490159 -1.5956477085 -1.5885203046
N -1.0035543318 -2.0438890536 -0.9828373837
C -2.0632925518 -1.1738552619 -0.7742351594
C -1.8623157808 0.2136950604 -0.7502037985
C -2.9434695463 1.0599488353 -0.4885727170
C -4.2258999062 0.5450691780 -0.2666794700
C -4.4113725217 -0.8468321109 -0.2898177167
C -3.3440195418 -1.7052525125 -0.5443876833
O -5.6882804982 -1.2639166791 -0.0579628401
C -5.9349547427 -2.6744005964 -0.0758162505
O -5.2943108605 1.3909171308 -0.0548368338
C -5.5040302322 1.6846439773 1.3398072763
O -2.8427661831 2.4182329244 -0.4309864621
C -1.5459929362 2.9942935885 -0.6270568491
H 3.5021834644 0.1051741637 -2.8223127793
H 3.2617432066 -1.6543193409 -2.8250808153
H 1.9099962726 -0.5745843911 -3.1054008051
H -0.0637722400 -1.2411493932 1.0792634476
H 5.6034348657 1.7235352826 3.5976378466
H 6.8578707962 1.7300750505 2.4372480533
H 5.1310996387 -1.0198605503 -2.0368015813
H 6.5209653092 -0.2263373144 -1.4408021035
H 0.0260224376 -0.8417429642 -2.3639442035
H 0.6771029258 -2.4539674632 -2.1100607563
H -1.2729236878 -2.9850770052 -1.2209294639
H -0.8739358594 0.6219576675 -0.9057204714
H -3.4824105385 -2.7793518469 -0.5695649855
H -6.9998532632 -2.7894777626 0.1288786365
H -5.3532696807 -3.1871031030 0.6994960406
H -5.7003083698 -3.1027221982 -1.0574520022
H -4.6253407210 2.1854187967 1.7640661830
H -6.3683222506 2.3504299953 1.3936606129
H -5.7110956426 0.7651552146 1.9004664180
H -1.6860703962 4.0714543221 -0.5307313987
H -0.8385421963 2.6457030182 0.1350570012
H -1.1574888196 2.7620074620 -1.6256676633
H 1.5009147698 -0.2272894543 2.7062201866
