22
CONF5
C 4.2798708336 1.3185052436 0.1297569964
C 3.3559530558 1.6829308685 1.1018099614
C 2.0340237836 1.2697588134 0.9892884389
C 1.6073499418 0.4851587097 -0.0842993909
C 2.5407862410 0.1295805239 -1.0618929389
C 3.8587713485 0.5459575514 -0.9450295333
Br 5.1159426673 0.0448341549 -2.2894913871
C 0.2025643093 0.0351832812 -0.2324414596
C -0.6602779272 0.7516397249 -1.0605458941
C -1.9834904172 0.3623244245 -1.2373476922
C -2.4624129886 -0.7696477923 -0.5765598159
C -1.6148284064 -1.5038930965 0.2479339497
C -0.2975896167 -1.0996801167 0.4096906134
Br 0.8358693749 -2.1405384097 1.5318146561
Br -4.2539685447 -1.3646321488 -0.7629843072
Br -3.0802516785 1.4036181629 -2.3828067165
Br 0.7908973214 1.8033166233 2.3327730200
H 5.3121104964 1.6371213998 0.2110506933
H 3.6648196207 2.2904830557 1.9440664916
H 2.2243116231 -0.4802558694 -1.9000346931
H -0.2912411280 1.6358863168 -1.5673141953
H -1.9848332177 -2.3855898824 0.7547864811
