43
CONF441
C 6.3616626145 -2.8105950087 -2.5676846134
C 5.2608343146 -3.2164684800 -1.8499549660
C 4.2272307366 -2.2842408570 -1.6469186999
N 4.2566187997 -1.0369259527 -2.1066672089
C 5.3365321378 -0.6546753393 -2.8019925309
C 6.4082160728 -1.4966608856 -3.0557970630
C 7.5745051211 -1.0451820676 -3.8671244114
F 7.5362875892 -1.5378669929 -5.1389846168
F 7.6435623489 0.3012339332 -3.9774148851
F 8.7544455515 -1.4650244823 -3.3400070062
O 3.1653819120 -2.7153724966 -0.9447530538
C 2.0778645813 -1.7804427817 -0.7242171585
C 1.0319067397 -2.5199207026 0.0867744935
C -0.1961531349 -1.6676254244 0.3177816358
O 0.2035221987 -0.5249838778 1.1284424613
C -0.7831922792 0.3977052038 1.3006584091
C -0.9546128715 1.4657149303 0.4080932448
C -1.9244716097 2.4355070615 0.5876657544
C -2.7656887810 2.3581345200 1.7011523029
C -2.6279871356 1.3181817215 2.6205996550
C -1.6434765612 0.3611166512 2.3996054659
Cl -1.4652564507 -0.9397906743 3.5571300678
O -3.6771637053 3.3670352364 1.8069133574
C -4.6599452008 3.2941105435 2.8576986272
C -5.6645301285 2.2236599145 2.5729443572
C -6.1602179368 1.3616092490 3.4549751751
Cl -7.3587207335 0.1736443876 3.0249879785
Cl -5.6897862034 1.3037349553 5.1303498863
Cl 0.1112159821 1.5742925796 -0.9756690151
H 7.1824145078 -3.4969487466 -2.7494433039
H 5.1757951160 -4.2184540459 -1.4463268430
H 5.3367022918 0.3697514065 -3.1656058784
H 1.6765467392 -1.4580347014 -1.6917852135
H 1.4509195014 -2.8338413220 1.0493839798
H -0.9694023274 -2.2316195722 0.8526783409
H -0.6120544317 -1.3033371496 -0.6307308356
H -2.0363662962 3.2517647069 -0.1159506309
H -3.2527575233 1.2335669049 3.4986835387
H -5.1481099061 4.2734050180 2.8278147994
H -4.1781446340 3.1812909943 3.8341479350
H -6.0355660621 2.1714220698 1.5527640284
H 0.7182676500 -3.4216735280 -0.4512237387
H 2.4579798961 -0.9025857143 -0.1945199472
