43
CONF20
C -3.0335417277 -0.6198241642 -4.4422546664
N -2.9981014453 0.2579609537 -3.2693345328
C -2.6533533936 -0.0044960190 -1.9872497199
C -2.7887966716 1.1820086316 -1.2527433999
C -3.2277484135 2.0992083444 -2.2283985263
N -3.3437238424 1.5454851668 -3.4307537428
Cl -3.5605200847 3.7796674340 -2.0593582319
C -2.4547326688 1.3861806405 0.1639926155
O -1.6851176241 0.6816362691 0.7893783934
O -3.0925106796 2.4466967529 0.6733937263
C -2.7810867688 2.7551489889 2.0577279662
S -2.2361382729 -1.6349864211 -1.3770108795
O -2.9407973632 -1.8564117886 -0.1151634801
O -2.3933391588 -2.5825976958 -2.4778987044
N -0.6065329716 -1.5293473837 -0.9574595264
C 0.3200635199 -1.0418329776 -1.8660578501
O 0.0780849046 -0.8834327482 -3.0554005583
N 1.5684291015 -0.7496663266 -1.3453674569
C 2.0302737096 -0.7315434670 -0.0306135022
N 3.3029973705 -0.3344963233 0.0924848131
C 3.7609575542 -0.2961345699 1.3426259263
C 2.9914383739 -0.6348286730 2.4626678311
C 1.6903345766 -1.0305673481 2.1941016337
N 1.2015672011 -1.0879100794 0.9417070772
O 0.7910807037 -1.3931201972 3.1156774545
C 1.2043476973 -1.3695363912 4.4991682968
O 5.0204898010 0.0843860428 1.5750358161
C 5.8389962243 0.4410778627 0.4344034876
H -3.8173040136 -1.3700010507 -4.3256860663
H -3.2474446164 0.0193802119 -5.2975803460
H -2.0658726150 -1.1076668373 -4.5585657130
H -1.7119712624 2.9512449416 2.1649939558
H -3.3636634018 3.6455728666 2.2879852347
H -3.0752153070 1.9221260524 2.6999639933
H -0.3768184935 -1.4102961896 0.0457783257
H 2.2329517977 -0.4279702381 -2.0376836356
H 3.4154010554 -0.5809098624 3.4546432517
H 1.4864467826 -0.3546636437 4.7958713639
H 0.3329298294 -1.6962124311 5.0645439781
H 2.0379091482 -2.0598547916 4.6605419942
H 5.4041676888 1.2916404609 -0.0956760748
H 6.8059075549 0.7086390397 0.8587547111
H 5.9395571113 -0.4097526611 -0.2433806274
