50
CONF23
C 4.0767163605 -3.6473398910 -0.4883066739
C 2.7979747142 -3.2501426873 0.1933290204
O 2.4674487650 -3.5603259282 1.3125725279
O 2.0495876259 -2.4633462046 -0.6249128456
C 0.8109612146 -1.9672844119 -0.0681598119
C -0.2920416383 -2.9957339590 -0.1670487340
C -1.5523423310 -2.6274967647 0.0823574834
C -1.7479757755 -1.1922283487 0.4609179606
C -3.1596356387 -0.6128521913 0.6261107441
C -3.0825302331 0.8463566984 1.2197767876
C -1.7821191370 1.5821024796 0.9609216356
C -0.8513750242 1.0054655229 0.1173670610
C -1.0238870982 -0.2997865824 -0.5731183508
C 0.4363228441 -0.7132726056 -0.8578205729
O 1.2845984358 0.4341727549 -0.5054996095
C 0.4857749176 1.3598538799 0.1002718369
C 0.8927718979 2.4986771020 0.7788947252
C -0.0572201572 3.1894282256 1.5311926807
C -1.3664491456 2.7247213927 1.6589143942
O 2.2269798006 2.8887118629 0.8421820564
C 2.8598214817 3.1539757289 -0.3552843343
O 2.3015979094 3.1539318240 -1.4181965458
C 4.3108037515 3.4380447881 -0.1035215714
C -1.8242374788 -0.2448184232 -1.8851548618
C -3.2782153764 0.1411773709 -1.6692258830
N -3.8759229414 -0.7200702015 -0.6504334409
C -5.3079458355 -0.4881352921 -0.5255706363
H 4.5874281915 -4.4008305507 0.1095025267
H 3.8751958682 -4.0239217437 -1.4939791707
H 4.7158682012 -2.7650252121 -0.5917963312
H 0.9852909087 -1.6920857501 0.9821033523
H -0.0109870840 -4.0104894661 -0.4290204919
H -2.3870941032 -3.3186781264 0.0158838773
H -1.2354230050 -1.0350165870 1.4234827382
H -3.7104925127 -1.2318003835 1.3455110670
H -3.2160625220 0.7877739758 2.3066818874
H -3.9395479910 1.4233570015 0.8513647657
H 0.6073034249 -0.9029685302 -1.9214601279
H 0.2680000808 4.0729721463 2.0705769549
H -2.0485309749 3.2361101920 2.3315649647
H 4.7874076635 2.5514443828 0.3243678318
H 4.4148418167 4.2475129411 0.6240101030
H 4.7942314498 3.7071672528 -1.0412700402
H -1.3421768319 0.4674455076 -2.5644457694
H -1.7813086512 -1.2384701514 -2.3479916613
H -3.3521553791 1.2147711139 -1.4031250060
H -3.8356476334 0.0101190560 -2.6043522109
H -5.7953809264 -0.7174206426 -1.4794214911
H -5.7267462503 -1.1529452887 0.2375162405
H -5.5750592834 0.5525898480 -0.2591187938
