88
CONF3
C 1.6410937091 -1.0641659425 -0.3851961280
C 0.1842694041 -0.7838412536 -0.0078943515
C -0.4813469666 0.0443561393 -1.0970305966
O -1.8480775901 0.3656733997 -0.7182514281
C -2.8015314229 -0.5542235946 -1.0148346206
O -2.5650483871 -1.6164179028 -1.5673232019
C -4.1187070354 -0.0774495152 -0.5856423674
C -5.2089305211 -0.8485569781 -0.7613812710
C -6.5823065738 -0.5312749318 -0.4097872714
C -6.9524865300 0.7172752264 0.1137138622
C -8.2846890018 0.9627020633 0.4315374660
O -8.7563270381 2.1301977103 0.9398849994
C -7.8063612910 3.1806535076 1.1672827550
C -9.2602322040 -0.0309966613 0.2232558320
O -10.5759934533 0.2344346415 0.4882304919
C -10.9584199106 -0.0824224929 1.8456956265
C -8.8848733916 -1.2801641883 -0.2932274370
O -9.8953768134 -2.1750199593 -0.4436765476
C -9.5570146015 -3.4694926966 -0.9616385104
C -7.5504795917 -1.5256066939 -0.6168451282
C 0.2255480906 1.3736701104 -1.3290863268
O -0.3400771509 2.0464135760 -2.4588000776
C -1.2018821028 3.1364143668 -2.1226008907
C 1.6985879021 1.1208845280 -1.6525433444
C 2.4335377418 2.4339765396 -1.8112662507
O 2.1039794647 3.4957638834 -1.3233985389
O 3.5615336356 2.2628093614 -2.5266278579
C 4.4026959305 3.4352898729 -2.6639626828
C 2.4229817859 0.2396491634 -0.6050966625
C 2.6563785982 0.9507413689 0.7301254958
C 3.3350219629 0.0359489385 1.7534566264
N 2.5770004897 -1.2247406695 1.9158725792
C 3.2564822334 -2.0969663827 2.8907659122
C 4.6518334764 -2.5883875540 2.4423460428
C 5.3864083971 -1.4666833196 1.7832323600
C 4.7733206488 -0.2837969310 1.4536429465
N 5.6906493485 0.5563192458 0.8411556554
C 6.9054101655 -0.0833994633 0.7621691953
C 6.7486231691 -1.3699692986 1.3453915549
C 7.8617520212 -2.2223298476 1.3828984955
C 9.0673425842 -1.7910024856 0.8568586298
C 9.1929176365 -0.5066988685 0.2833715913
O 10.4429736537 -0.2130083551 -0.1977667393
C 10.6291101721 1.0723859227 -0.7944105849
C 8.1132199619 0.3708075858 0.2258742100
C 2.3779007394 -1.9256446356 0.6384783101
H 1.6410418667 -1.6219650234 -1.3322262733
H -0.3584682777 -1.7274682037 0.1095725043
H 0.1237852524 -0.2462583080 0.9441530732
H -0.5087667606 -0.5130756807 -2.0406734367
H -4.1573422120 0.9068701972 -0.1313853606
H -5.0533548953 -1.8258196620 -1.2158418001
H -6.2041569231 1.4832963307 0.2649077913
H -8.3824701768 4.0132535189 1.5711417065
H -7.0452019519 2.8708528430 1.8926572670
H -7.3255548794 3.4838266997 0.2301215193
H -10.3703039279 0.5090187721 2.5562675739
H -12.0151523092 0.1748256286 1.9345121193
H -10.8174291703 -1.1514250640 2.0412730586
H -8.8473024840 -3.9825352175 -0.3024452533
H -9.1378502158 -3.3912388874 -1.9713030959
H -10.4946421179 -4.0244780183 -0.9954752418
H -7.2433274007 -2.4815299507 -1.0226478424
H 0.1350965645 2.0037682054 -0.4336684223
H -2.0799258679 2.7977109595 -1.5591960015
H -0.6617889717 3.8936235837 -1.5389846909
H -1.5290945407 3.5770524617 -3.0675288757
H 1.7431681717 0.5919499591 -2.6130693277
H 4.7147531211 3.7914112833 -1.6790673362
H 3.8626636576 4.2265582191 -3.1891806386
H 5.2634323558 3.1065601403 -3.2448344666
H 3.4026190703 -0.0234191211 -1.0253305372
H 1.7106280049 1.2938932896 1.1611145221
H 3.2678754989 1.8493142969 0.5891561151
H 3.2904544986 0.5517253207 2.7254821573
H 2.6066776560 -2.9551083665 3.0985799681
H 3.3603416286 -1.5245933580 3.8212360897
H 4.5587824365 -3.4442726290 1.7588010900
H 5.1962207214 -2.9587705676 3.3201559805
H 5.5083176161 1.4900151644 0.5113716599
H 7.7849043333 -3.2136887324 1.8204456659
H 9.9434768311 -2.4312702398 0.8741857215
H 9.9755327014 1.2022300359 -1.6661786579
H 10.4390845583 1.8759842953 -0.0717529586
H 11.6720085026 1.1064832047 -1.1118274290
H 8.1877094107 1.3601941277 -0.2086367008
H 1.7991589199 -2.8346648476 0.8464325847
H 3.3339882271 -2.2399435126 0.1827342511
