52
CONF38
C 2.9168995893 -2.7158751744 0.7070351766
N 2.8946170525 -1.2941251414 0.3514360676
C 4.2724504616 -0.7738142878 0.4033702049
C 4.3489265347 0.6893922802 -0.0091314484
C 3.4439868371 1.5333056648 0.8832545435
C 2.0311778656 0.9597643480 0.8499576706
C 2.0118351608 -0.5196954345 1.2493314237
C 0.5806228196 -1.0815740922 1.2877285486
C -0.0797431975 -1.2686625108 -0.0848124226
N -0.6641391774 -0.0287354190 -0.6146925873
C -0.5147277976 0.2738588421 -1.9829181766
C -0.2135120028 -0.7070459692 -2.9373218093
C -0.0227604040 -0.3626935472 -4.2733513947
C -0.1688532585 0.9547658771 -4.6954012533
C -0.5177669951 1.9331638011 -3.7675370431
C -0.6706269635 1.5984070724 -2.4256294072
S -1.0040958297 2.8729029377 -1.2278963034
C -2.0296991962 1.9268453345 -0.1275761199
C -1.7151154825 0.5725972436 0.0919094542
C -2.4680411264 -0.1342332916 1.0389139734
C -3.4760860561 0.5145645306 1.7345654494
C -3.7885550036 1.8520964517 1.5257011297
C -3.0684968294 2.5488440307 0.5594940678
S -4.3737693692 -0.4242989098 3.0125247251
O -3.6317169254 -1.7529095641 3.1881572274
C -5.8565396355 -0.8041046985 1.9990137937
H 3.1801152627 -2.8820294892 1.7694650751
H 1.9485157118 -3.1872180666 0.5170917121
H 3.6617336414 -3.2274253992 0.0891730365
H 4.8892250084 -1.3879203265 -0.2635115383
H 4.6902994762 -0.8832455097 1.4263422748
H 4.0330280325 0.7891183214 -1.0560861443
H 5.3905080474 1.0250224421 0.0534898028
H 3.4410315599 2.5804393083 0.5597038254
H 3.8262322046 1.5118676390 1.9135110994
H 1.3671899993 1.5127299361 1.5252725760
H 1.6219478374 1.0643733142 -0.1620731863
H 2.4001953539 -0.5909863668 2.2890897170
H 0.5752133249 -2.0515746592 1.7947712185
H -0.0168755604 -0.4144503622 1.9172700829
H 0.6951998816 -1.5819026861 -0.7854329097
H -0.8282406570 -2.0728901193 -0.0496076472
H -0.1322178377 -1.7465161146 -2.6435234135
H 0.2261649913 -1.1409694253 -4.9876830306
H -0.0259675870 1.2221888616 -5.7369010271
H -0.6513104170 2.9649780920 -4.0780580203
H -2.2723796415 -1.1780567692 1.2546483724
H -4.5724621938 2.3453494863 2.0919924119
H -3.2890964190 3.5934932772 0.3635773478
H -5.5322732941 -1.3497864916 1.1090625716
H -6.5163342185 -1.4136170470 2.6212243641
H -6.3457145622 0.1362886430 1.7310665367
