55
CONF18
C -1.8110071289 -6.4803747101 4.8323878485
C -0.8916234790 -6.6127158436 3.6358467686
O -0.3452601252 -5.3252430709 3.2491569234
C -1.1591664139 -4.5625757596 2.4658095413
O -2.2474602887 -4.9059716167 2.0543562196
N -0.5322192571 -3.3655309000 2.2300553539
C -0.9779155138 -2.2960650516 1.4408676183
C -0.1630565509 -1.1596776811 1.4081612149
C -0.5056840216 -0.0768902394 0.6118044859
C -1.6973416713 -0.0936441110 -0.1192524891
C -2.5222536787 -1.2127232086 -0.0523402824
C -2.1670617015 -2.3211887316 0.7040527129
S -2.1347873090 1.2907642419 -1.1478522433
C -1.4671902883 2.5825700310 -0.1325443775
C -2.0817327212 3.8332719470 -0.0730476045
C -1.5491679332 4.8300186219 0.7354204054
C -0.4318734728 4.5684376488 1.5255932990
C 0.1696900201 3.3166312605 1.4837828498
C -0.3123216900 2.3352175293 0.6185445995
N 0.3351089640 1.0721824679 0.5131102402
C 1.6838124394 0.9186542916 0.1604804225
O 2.2262355069 -0.1735196892 0.1958425329
C 2.4381509442 2.1428577546 -0.3160752750
C 3.1743809907 1.8713091556 -1.6545124423
N 2.3594474217 1.8063552964 -2.8572722661
C 1.5892753047 3.0176401276 -3.1270675974
C 0.9595777609 2.9121871479 -4.5093512815
O 0.1133673220 1.7701980063 -4.6023561588
C 0.8533261010 0.5813655034 -4.3236116976
C 1.4862967901 0.6343807709 -2.9412093357
H -1.2878846346 -6.0176351877 5.6739811661
H -2.1536101641 -7.4725939004 5.1429705862
H -2.6874015664 -5.8786046684 4.5801427681
H -1.4113110864 -7.0484029518 2.7778995728
H -0.0096871745 -7.2136578628 3.8708972291
H 0.3766815370 -3.2641942201 2.6545172578
H 0.7622073959 -1.1267786446 1.9700627983
H -3.4557393759 -1.2226569638 -0.6054000876
H -2.8073680985 -3.1905049400 0.7366500849
H -2.9785952680 4.0153375298 -0.6559962125
H -2.0269045152 5.8032925319 0.7708104309
H -0.0368651692 5.3337198463 2.1848197446
H 1.0331209061 3.0938600350 2.1025572935
H 1.8076009578 3.0273276616 -0.4054672828
H 3.2023895594 2.3594704886 0.4403871208
H 3.9042821678 2.6799235549 -1.7909076114
H 3.7295960621 0.9318575532 -1.5594456447
H 0.7760348345 3.1794155772 -2.3896736655
H 2.2587116549 3.8876842574 -3.0930097661
H 0.3281550539 3.7828151057 -4.7122749020
H 1.7540447375 2.8565428927 -5.2728421891
H 0.1405628239 -0.2462589124 -4.3861334983
H 1.6380890356 0.4424231449 -5.0863031829
H 2.0788483494 -0.2711719866 -2.7655072553
H 0.6734962597 0.6608679650 -2.1915132962
