56
CONF23
C -1.3995464080 -2.4739571724 2.5550907890
C -1.0928134357 -1.1960696772 1.7767468255
C -1.9129962996 -0.0219030140 2.3156076635
C -1.3764641465 -1.4165169228 0.2628880503
C -0.5805754201 -2.5535125195 -0.3427986535
C 0.8132924245 -2.5919806124 -0.2795860061
C 1.5374661500 -3.6511992683 -0.8205167008
C 0.8453995275 -4.6902747942 -1.4368093569
C -0.5426097883 -4.6752744420 -1.5147838807
C -1.2460293986 -3.6086073441 -0.9698925214
O 1.4347662605 -5.8160567406 -2.0208248588
C 2.7845346970 -5.9972063669 -2.0193826203
F 3.2930682768 -6.0310126934 -0.7430420587
F 3.4381354886 -4.9705998453 -2.6580682832
C -1.0823130459 -0.1262931644 -0.4714784360
O 0.0034087491 0.3981979958 -0.5689637490
O -2.2208915717 0.4117402898 -0.9941584505
C -2.0655571274 1.7539348247 -1.5552669714
C -3.1248670782 1.8888397600 -2.5505083006
N -3.9556988005 2.0244773722 -3.3404872450
C -2.1638451036 2.7804169360 -0.4510205635
C -3.3937407406 3.0677291817 0.1427910260
C -3.4391488428 3.9353205511 1.2287160611
C -2.2713274866 4.4973180989 1.7360420911
C -1.0526314224 4.1973032797 1.1338939882
C -0.9892310586 3.3548493923 0.0270153366
O 0.0693797161 4.8143436149 1.6447293914
C 1.2778738018 4.1294331107 1.6181186501
C 2.4106176656 4.8598152254 1.2777360802
C 3.6542469719 4.2330021322 1.3056984402
C 3.7600154204 2.8901236642 1.6614606896
C 2.6132379175 2.1742651661 2.0027719362
C 1.3651257146 2.7896051782 1.9904012548
H -2.4561993181 -2.7448041163 2.4438472811
H -0.7927765541 -3.3148239597 2.2072332765
H -1.1976905709 -2.3224038399 3.6199446842
H -0.0263316061 -0.9572970286 1.8803071905
H -1.7215251392 0.1123159782 3.3845746288
H -2.9851550994 -0.2082685439 2.1819695342
H -1.6671985842 0.9205610646 1.8136012235
H -2.4422967526 -1.6379702545 0.1492677890
H 1.3578262653 -1.7860767211 0.2000145432
H 2.6166573926 -3.6461316612 -0.7494980620
H -1.0588150149 -5.4972818839 -1.9990420979
H -2.3303822484 -3.6017519177 -1.0303323466
H 3.0095234483 -6.9390477610 -2.5242052211
H -1.0988459614 1.8227900879 -2.0662844675
H -4.3044949013 2.6121374860 -0.2332828266
H -4.3902400307 4.1676126103 1.6963200624
H -2.2929463673 5.1625872173 2.5927245597
H -0.0376931281 3.1287653759 -0.4399501303
H 2.3098974323 5.9029213142 0.9965515595
H 4.5418481241 4.7986544306 1.0402110550
H 4.7299325364 2.4040810781 1.6755097486
H 2.6869389082 1.1299038544 2.2901298590
H 0.4712070884 2.2370145700 2.2608218476
