45
CONF74
C -3.8718839883 3.3492570891 -1.8249399337
O -3.2032618469 2.0656995220 -1.8824479611
C -3.1570734609 1.4010371568 -0.7075268320
O -3.5981760275 1.8148994211 0.3505968009
N -2.5055794832 0.2038250319 -0.8654633977
C -2.1346049049 -0.4282867534 -2.0831017195
C -3.1155156813 -0.7251053101 -3.0300584238
C -2.7645663948 -1.3587475155 -4.2160550947
C -1.4375923857 -1.7143571833 -4.4490091770
C -0.4652684120 -1.4233082883 -3.4979068502
C -0.7936947026 -0.7738122512 -2.3069147432
C 0.2749267155 -0.4713051071 -1.3041413586
O 0.4975056166 -1.6824480466 -0.5277026081
C 1.3190746886 -1.5495634988 0.5276253699
N 1.9291810422 -0.4119324090 0.8415625429
N 2.6545408289 -0.7197810618 1.9585984970
C 2.4889043369 -2.0243376907 2.3261171867
C 1.6310072634 -2.6010648110 1.4217286543
C 3.4232010911 0.2737253066 2.5959156921
C 4.4198133547 -0.0852631356 3.5079276205
C 5.1640470145 0.8973961841 4.1479261548
C 4.9175963143 2.2339239313 3.8583313768
C 3.9403979192 2.6057179827 2.9436028028
C 3.1881918609 1.6222513255 2.3136925586
Cl 5.8666952494 3.4795823641 4.6621365275
O -2.2967853647 -0.5301089583 0.3044363928
C -3.3640386765 -1.4882995276 0.4958492476
H -3.8306570467 3.7346548303 -2.8429275922
H -4.9088165627 3.2235715755 -1.5048262894
H -3.3473676550 4.0195628385 -1.1400707897
H -4.1464871135 -0.4532141528 -2.8291607172
H -3.5295510496 -1.5854151647 -4.9516246668
H -1.1609453172 -2.2147362323 -5.3712714962
H 0.5720266017 -1.6894045958 -3.6807945610
H -0.0172667174 0.3412694086 -0.6329380033
H 1.2118227858 -0.2024793057 -1.8049055484
H 2.9638801884 -2.4390628558 3.2019295828
H 1.2688887794 -3.6168455993 1.4046233370
H 4.6371734916 -1.1255917658 3.7179985494
H 5.9375832342 0.6179352815 4.8539305568
H 3.7570562953 3.6518468176 2.7263495896
H 2.4157311142 1.9012440576 1.6086026352
H -3.3971819685 -2.1988216579 -0.3375434287
H -3.1084941557 -2.0099794643 1.4200469133
H -4.3244367541 -0.9732669776 0.6018022168
