47
CONF139
C -6.3643179189 -3.3045119071 0.3778004889
O -6.5584281768 -2.1109442165 1.1687371135
P -5.8171656113 -0.7515565651 0.7460739625
S -5.8184912880 -0.2810243072 -1.1265753880
O -6.4696482261 0.2892805247 1.7776783719
C -7.6992786143 0.9667277641 1.4312772088
O -4.3723510488 -0.9906374245 1.4465487614
C -3.3413244133 -0.0611128117 1.2804130160
C -2.3966015111 -0.2699030392 0.2843004065
C -1.3408066789 0.6212451320 0.1521633210
C -1.2229946637 1.7032424723 1.0283036090
C -2.1781507180 1.8934317941 2.0291577364
C -3.2494473049 1.0152296473 2.1504467022
S 0.0787458097 2.9176998545 0.8693555196
C 1.4777492999 1.9142363360 0.3915490126
C 2.2504073980 2.3091039316 -0.6997844324
C 3.3876009649 1.5909385442 -1.0577642746
C 3.7343247946 0.4643154546 -0.3220941748
C 2.9688218866 0.0554716163 0.7662520887
C 1.8474744599 0.7852243851 1.1279704092
O 4.8144903040 -0.3412574736 -0.6520057088
P 6.2371559488 0.2317312137 -1.2416666486
S 6.9619439837 1.7831754957 -0.3782355476
O 5.9882326217 0.4111592084 -2.8132720995
C 5.3696986821 -0.6514129242 -3.5821563438
O 7.0660884923 -1.1436327281 -1.2102652560
C 7.5721239513 -1.6347390680 0.0511195813
H -7.0369920401 -4.0525511346 0.7985806017
H -5.3280413532 -3.6476598759 0.4591957016
H -6.6147823945 -3.1110387926 -0.6694228032
H -8.5261444369 0.2511222786 1.3894308070
H -7.8731388482 1.6905076107 2.2281307631
H -7.5932696073 1.4756676309 0.4691232541
H -2.5077637354 -1.1110401396 -0.3902968580
H -0.6075859392 0.4766567746 -0.6337635157
H -2.0786466268 2.7236979962 2.7205658466
H -3.9985981574 1.1464751833 2.9227880697
H 1.9600918197 3.1792942446 -1.2786985614
H 3.9877183444 1.9047889882 -1.9044398662
H 3.2705173378 -0.8224473191 1.3267235016
H 1.2553090487 0.4801929125 1.9841669820
H 5.2615172284 -0.2578713643 -4.5931642739
H 6.0102027219 -1.5370223491 -3.5887522558
H 4.3871047539 -0.8996136585 -3.1693324043
H 6.7429609430 -1.9133791616 0.7090982424
H 8.1699237678 -2.5144894646 -0.1887513521
H 8.1937636599 -0.8727710786 0.5305366659
