40
CONF166
C 7.4566608060 -0.3562912588 -2.2904881825
C 6.4326014981 -1.3234635655 -1.7523445362
O 5.2727406502 -0.5310267733 -1.3283700784
C 4.2437719986 -1.2161491803 -0.8306204686
O 4.2082009986 -2.4186060633 -0.6785820578
C 3.0939194502 -0.2812323904 -0.4784150476
C 2.2434863770 -0.8275930155 0.6593157691
C 1.1281290396 0.1000343379 1.0510245095
C -0.1726357071 -0.1568040371 0.6205711297
C -1.2300723603 0.6949945508 0.9259915835
C -0.9699944357 1.8362739566 1.6806668485
C 0.2962908832 2.1157572886 2.1585734974
C 1.3278795454 1.2437164255 1.8333849745
Cl 2.9300991471 1.6236717488 2.4429660739
F -1.9633690859 2.7067290650 1.9329722076
N -2.5307032167 0.4197641940 0.4647915014
C -3.6634494958 0.3259358273 1.2458160609
O -3.8066558913 0.5106648529 2.4421401179
N -4.6336769233 -0.0704607622 0.3052112210
C -4.0191283986 -0.2280447934 -0.9318010284
N -2.7531420489 0.0542999855 -0.8555863027
C -4.7138189051 -0.6513207582 -2.1670626171
C -5.9938968502 -0.2835585909 0.6578488793
F -6.3614077667 -1.5731495530 0.3817603861
F -6.8103075582 0.5133737197 -0.0982736308
Cl 2.1000472018 -0.1256322850 -2.0204806257
H 7.7663122691 0.3549909378 -1.5200176784
H 7.0618067095 0.1950420646 -3.1481560861
H 8.3373216799 -0.9170317957 -2.6165187342
H 6.7991472738 -1.8766579430 -0.8828349090
H 6.0944150260 -2.0361451588 -2.5103521180
H 1.8399687240 -1.8007279758 0.3708911397
H 2.9204809363 -0.9915526445 1.5062280874
H -0.3731527815 -1.0440757392 0.0296524708
H 0.4664388031 3.0077467839 2.7495705516
H -5.5083510660 0.0540674604 -2.4278241180
H -5.1652853254 -1.6396346354 -2.0390614809
H -3.9871029620 -0.6905154417 -2.9791558012
H -6.1438037574 -0.0721136173 1.7206009112
H 3.4678489415 0.7234275699 -0.2767085528
