41
CONF3
C -5.0681594326 -0.5500934186 -1.3850093655
C -4.5258415906 0.8546226482 -1.1301743547
N -3.6179129108 0.9036304500 0.0236369830
C -4.2282107620 1.2386655869 1.3119770542
C -4.0585737650 2.7003863105 1.6967362252
O -4.7570116298 3.4986394566 0.7348036590
C -2.3040422352 0.5842688174 -0.0874994377
C -1.7382806279 0.1854153249 -1.3314302572
C -0.4043268963 -0.1280350734 -1.4277853614
C 0.4526182516 -0.0716695916 -0.3093598987
C -0.1006497938 0.3182352425 0.9329391191
C -1.4297474823 0.6358877879 1.0422837201
N 1.7673933483 -0.4094759820 -0.5350014456
N 2.5467918752 -0.3567713808 0.4767054840
C 3.8725207424 -0.7057516506 0.1977837342
C 4.3667000974 -1.0778813160 -1.0701550137
C 5.6988964159 -1.4000953576 -1.2274096025
C 6.5502649609 -1.3541753059 -0.1190855429
C 6.0870070481 -0.9897835236 1.1454390888
C 4.7517428504 -0.6676041343 1.2954951907
N 7.9533519403 -1.6942152369 -0.2897468268
O 8.3452171951 -2.0124984088 -1.4150975249
O 8.6905497058 -1.6495426749 0.6980883682
H -4.2612800729 -1.2548644023 -1.6052517699
H -5.7540813940 -0.5322834644 -2.2372824508
H -5.6158486174 -0.9149762727 -0.5106026388
H -5.3468880485 1.5431015937 -0.9189816566
H -4.0125617877 1.2466482727 -2.0130063685
H -3.8241142147 0.6041154553 2.1067346414
H -5.2964237653 1.0117600828 1.2379337514
H -4.4746811342 2.8406173816 2.7055126927
H -2.9930759655 2.9678114238 1.7203188804
H -4.5741522649 4.4253230782 0.9300750865
H -2.3539742489 0.1112293614 -2.2175629090
H 0.0139630179 -0.4339458815 -2.3820487137
H 0.5370201672 0.3693609082 1.8078319626
H -1.8071690542 0.9380879328 2.0103789501
H 3.6959761780 -1.1088073504 -1.9194836939
H 6.0901448535 -1.6864548000 -2.1957047847
H 6.7666770896 -0.9619588791 1.9875047835
H 4.3601729568 -0.3797645217 2.2654997448
