47
CONF61
C -3.1396599491 1.9128677073 1.8250356258
C -2.2988554393 0.6873482355 1.5458820469
C -2.9128708959 -0.6884771584 1.6430136924
C -2.6444703146 -0.0763374670 0.2648945314
C -1.5917152713 -0.6801404755 -0.5638311292
O -0.6882096526 -1.3987463187 -0.1921033545
O -1.7537060486 -0.3039833408 -1.8713424838
C -0.7126785987 -0.7738290053 -2.7774899757
C -1.3599559628 -0.9149525094 -4.0798943293
N -1.8467220824 -1.0313956899 -5.1201982633
C 0.4463589446 0.1934044145 -2.8110400883
C 1.6028075053 -0.1225321559 -2.1012977670
C 2.6554212019 0.7853245112 -2.0538867284
C 2.5323448180 1.9917261494 -2.7430804274
C 1.3945862552 2.3115914970 -3.4616881437
C 0.3393813159 1.4079705483 -3.4901342798
F 3.5611154999 2.8618843770 -2.7036707689
O 3.8429254514 0.5347469604 -1.4181744453
C 3.8127567156 -0.1307245591 -0.1957450691
C 2.8692589357 0.1790623774 0.7796500757
C 2.9356606511 -0.4733112124 2.0072648821
C 3.9346771246 -1.4124062665 2.2581902297
C 4.8752222779 -1.6995863302 1.2715181418
C 4.8176631831 -1.0621148098 0.0347179262
C -4.3011255477 -0.9058868172 2.0540614268
C -4.7262276162 -1.9093249330 2.8226120567
Cl -3.6892760782 -3.1476610060 3.4756546095
Cl -6.4027114337 -2.0921379104 3.2701935990
C -0.8563694499 0.8315957618 1.9719777592
H -4.1541385203 1.8309845557 1.4297595398
H -2.6701934620 2.7910774823 1.3702682182
H -3.2009810847 2.0820018028 2.9057168678
H -2.2073370210 -1.4694209479 1.9091116364
H -3.4981903802 0.3074013905 -0.2829118453
H -0.3735991264 -1.7641851952 -2.4533338908
H 1.6857987008 -1.0656235533 -1.5723044937
H 1.3442206386 3.2615047085 -3.9825038498
H -0.5621506013 1.6520058021 -4.0428133256
H 2.0995032338 0.9179241328 0.5830487700
H 2.2048930508 -0.2359231513 2.7741288173
H 3.9807166750 -1.9147719790 3.2186310936
H 5.6574046746 -2.4283972770 1.4588872862
H 5.5391345048 -1.2758404962 -0.7467646441
H -5.0578083348 -0.2056614202 1.7138895019
H -0.3815249687 1.6552182302 1.4267894440
H -0.2821164861 -0.0792159646 1.7980028562
H -0.8192567409 1.0669474164 3.0409387967
