56
CONF12
C -0.1472763975 -1.6482416200 1.6858398794
C 0.5361706945 -2.7546055980 0.8991425798
N 1.9116342389 -2.9456633179 1.3713818964
C 2.6525253467 -1.6881130390 1.2443696876
C 1.9591167378 -0.5788285348 2.0233266999
N 0.5978375217 -0.4028128283 1.5311557956
C -0.0884435838 0.7454887470 2.1133861836
C 0.4223741107 2.0732102695 1.5407926699
C 0.6016607783 1.9966824647 0.0205648489
N -0.5952449038 1.4744028947 -0.6411570494
C -0.4939560094 0.3645951075 -1.4983419557
C 0.6720438429 0.1007256931 -2.2265627925
C 0.7731714414 -1.0337920603 -3.0242003583
C -0.3030763331 -1.9035615698 -3.1564854817
C -1.4910797837 -1.6208692640 -2.4899411327
C -1.5790848854 -0.5099936724 -1.6574277507
S -3.0635454495 -0.2392273157 -0.7147855818
C -3.0296379340 1.5326524880 -0.6476193851
C -1.7921284775 2.1936053692 -0.5594230666
C -1.7967979725 3.5817614665 -0.3758231551
C -2.9978053971 4.2738904442 -0.2718083768
C -4.2192330624 3.6151529629 -0.3845622069
C -4.2254834909 2.2425011037 -0.5903354954
C -3.0062619598 5.7577126821 -0.0511205127
F -3.6950830515 6.0914974322 1.0705170376
F -3.6065919246 6.4132369289 -1.0767890414
F -1.7633166891 6.2747083476 0.0785031867
C 2.5737745196 -4.0479440982 0.6671371060
C 3.7884382398 -4.5346174746 1.4507849960
O 3.4342123342 -4.8404376683 2.7929471073
H -1.1602929136 -1.5021329389 1.2928177201
H -0.2301519875 -1.9515305563 2.7495602488
H 0.5109061975 -2.4924928480 -0.1773538111
H -0.0134550643 -3.6932496661 1.0354579730
H 2.7346129340 -1.3845728823 0.1804962602
H 3.6663459212 -1.8206500627 1.6374748173
H 1.9756723839 -0.8234038690 3.1055438018
H 2.5230782666 0.3518959875 1.8874566745
H -0.0174534427 0.7675983920 3.2187233427
H -1.1519763889 0.6467671160 1.8654099981
H -0.2800436704 2.8652200615 1.8224225999
H 1.3897237179 2.3526360186 1.9748917906
H 0.9107371901 2.9688315629 -0.3895432351
H 1.4035466262 1.2882208810 -0.1828935053
H 1.5089614797 0.7869286237 -2.1722316982
H 1.6971624996 -1.2230735978 -3.5604561944
H -0.2297496290 -2.7842919012 -3.7846009218
H -2.3523030382 -2.2729141661 -2.5962578464
H -0.8641270111 4.1252058782 -0.3094019409
H -5.1506568693 4.1650323570 -0.3115510976
H -5.1649080445 1.7070158200 -0.6796136900
H 2.8681852788 -3.7690095882 -0.3640945237
H 1.8563522686 -4.8744648796 0.5966168606
H 4.1740584125 -5.4505168551 0.9889930630
H 4.6000599494 -3.7888680798 1.4204024162
H 2.7668021146 -4.1772970419 3.0301643453
