54
CONF10
C -0.8678092612 -0.7796920308 -4.3037858811
C -1.0345963734 -0.0127117462 -3.0007510318
C -0.2894306716 -0.6497399782 -1.8509760695
O 0.3054961509 -1.7026952132 -1.9133449526
O -0.4038982740 0.1296138741 -0.7549526715
C 0.0881017594 -0.2911560523 0.5626300600
C -0.6056812544 -1.6258902923 0.9400804453
C -2.0713548278 -1.6731615986 0.5808469216
C -2.5059014318 -2.4696056556 -0.4821219213
C -3.8491692499 -2.5055473063 -0.8465782947
C -4.7824047410 -1.7436976268 -0.1514399050
C -4.3630968352 -0.9569163467 0.9179654294
C -3.0215380458 -0.9238003432 1.2822937807
C -0.3103916686 0.8541238520 1.4915337794
C -0.6650393479 2.1101252648 0.9916773573
C -0.9792676965 3.1589018448 1.8508886448
C -0.9421872733 2.9792927574 3.2285420260
C -0.5902346360 1.7345139534 3.7395490300
C -0.2800390993 0.6857439615 2.8808054767
C 1.6360860063 -0.4465660428 0.4921872077
C 2.2793299210 -0.9376503096 1.7887419511
C 2.3102488133 0.8585801509 0.0407360329
N 3.6773412270 0.6266300404 -0.4366434958
C 4.4480148165 1.8658574632 -0.4093333613
C 3.6749824181 0.0769804887 -1.7910929039
H -1.2295028815 -1.8052943882 -4.1985837866
H 0.1840381882 -0.8307508922 -4.5964441971
H -1.4288905696 -0.2932204443 -5.1061100197
H -2.0883987431 0.0423703217 -2.6987792321
H -0.6955327961 1.0259793564 -3.0926100380
H -0.0803393653 -2.4392356632 0.4343258652
H -0.4844218383 -1.7819547879 2.0145543169
H -1.7816027766 -3.0647078544 -1.0301092598
H -4.1655572609 -3.1338980268 -1.6735810138
H -5.8301041932 -1.7697675746 -0.4336328905
H -5.0849388347 -0.3675992334 1.4749664723
H -2.7081121210 -0.3073054413 2.1184075467
H -0.7086307401 2.2664947842 -0.0779810685
H -1.2585368338 4.1221375222 1.4354046397
H -1.1896692003 3.7971897973 3.8973356897
H -0.5616091974 1.5725140251 4.8124462285
H -0.0236754849 -0.2754174975 3.3108075368
H 1.8047023792 -1.2118039632 -0.2688249233
H 1.8716430162 -1.8973993294 2.1197100020
H 2.1673645963 -0.2080456929 2.5964755467
H 3.3491009006 -1.0688192972 1.6067714964
H 2.3558387599 1.5400189150 0.8996967794
H 1.7030328441 1.3652311174 -0.7340000219
H 5.4699557571 1.6719286613 -0.7523006549
H 4.4999984401 2.2516081505 0.6140282846
H 4.0162769264 2.6568705574 -1.0555795539
H 4.7024087125 -0.1351049300 -2.1046504085
H 3.1115288768 -0.8591393113 -1.8322646998
H 3.2260738084 0.7755867142 -2.5269364659
