37
CONF1
C -2.1427769072 2.1571399751 -0.4551129903
C -2.4549345036 0.6672787677 -0.5764809392
C -3.9674826569 0.4284357394 -0.6813822034
C -4.3191713130 -1.0538836956 -0.8009071835
C -3.7422483041 -1.8431713083 0.3741461423
C -2.2327294210 -1.6276621978 0.4853846796
C -1.8868852399 -0.1399935471 0.6065816013
N -0.4414660204 0.0187678485 0.7330995137
C 0.1132009160 0.8595033390 1.6568415762
O -0.5237884517 1.4677891949 2.5074689764
N 1.5070463223 1.0027628682 1.6015337540
C 2.4264763716 0.4447514107 0.6974169256
C 3.4085643996 1.2641137932 0.1266824042
C 4.3586392057 0.7287108170 -0.7330681945
C 4.3348223003 -0.6249841403 -1.0577072634
C 3.3644086105 -1.4434502398 -0.4877978052
C 2.4251832970 -0.9240237510 0.3962967366
H -2.5696218559 2.7085062346 -1.2992950506
H -2.5621814928 2.5647509248 0.4706673746
H -1.9865001245 0.2788311483 -1.4966908147
H -4.3633162881 0.9871331279 -1.5380249320
H -4.4498345688 0.8468941490 0.2143456414
H -5.4065459618 -1.1823173294 -0.8503503952
H -3.9106450451 -1.4513786004 -1.7407093591
H -3.9635062180 -2.9113012179 0.2697643163
H -4.2214393132 -1.5090139936 1.3046847958
H -1.8245761292 -2.1608254454 1.3513362147
H -1.7387058610 -2.0377920410 -0.4087063702
H -2.3141108377 0.2594243153 1.5346796247
H 0.1257085092 -0.2733408696 -0.0496500051
H 3.4166839049 2.3252996912 0.3584242941
H 5.1138755970 1.3786097859 -1.1634979334
H 5.0709389725 -1.0388561290 -1.7380677614
H 3.3507773854 -2.5058133493 -0.7102237885
H 1.7131487556 -1.5809917275 0.8845127289
H -1.0656306048 2.3462013540 -0.4396044336
H 1.8084292856 1.8152279631 2.1172939606
