65
CONF131
C 2.3548764184 -0.7783103378 7.2931067874
O 2.5622468905 -1.7987385650 6.3085767391
C 2.9406858120 -1.3987075509 5.0580532245
C 3.1330957653 -2.4208597514 4.1224360314
C 3.5172351457 -2.1111910695 2.8249803235
C 3.7152396898 -0.7862168117 2.4197365043
C 3.5314790836 0.2177678310 3.3712725295
C 3.1469137109 -0.0686672707 4.6805921778
C 4.0523792866 -0.4451266027 0.9934335525
C 2.8657566727 0.0816916752 0.1676168244
N 1.7818887743 -0.9005502353 0.0031793718
C 1.1585626200 -0.7871106810 -1.3250086047
C 0.1141846301 -1.8765092057 -1.5349192582
C -0.9778489721 -1.8299319030 -0.4566963389
C -0.3203116090 -1.8216458794 0.9241209022
C 0.7552306118 -0.7445658683 1.0434952326
N -1.8424723445 -0.6434380012 -0.5861775531
C -2.6761575216 -0.5161850113 -1.6536715739
N -3.0903063833 -1.5048075056 -2.4346121564
C -3.9610936805 -0.9030139004 -3.3304000337
C -4.6866621883 -1.4605815670 -4.3818905601
C -5.4904728775 -0.6160154350 -5.1487606956
C -5.5728462829 0.7561991427 -4.8792194772
C -4.8546861715 1.3335563359 -3.8284461182
C -4.0616037150 0.4851145188 -3.0696914456
N -3.2316615858 0.7096513302 -1.9802235153
C -2.9264193431 1.9848308364 -1.3466373707
C -1.4861404770 2.4050446331 -1.5543426284
C -0.7374606806 2.8968403338 -0.4848767294
C 0.5898318974 3.2839271926 -0.6582595886
C 1.1432011452 3.1624374530 -1.9196186499
C 0.4332257613 2.6809178205 -3.0082617688
C -0.8900268967 2.3004815275 -2.8139631432
F 2.4424629179 3.5167290495 -2.0975742798
H 3.2774200255 -0.2151926337 7.4777233433
H 2.0568032582 -1.3005564821 8.2027409040
H 1.5583770286 -0.0901080326 6.9859082710
H 2.9788706682 -3.4510900540 4.4285238602
H 3.6574743329 -2.9149961278 2.1070035835
H 3.6822674622 1.2565054073 3.0866477743
H 3.0160522743 0.7428370695 5.3862540174
H 4.8288304803 0.3301148219 0.9748850502
H 4.4586789700 -1.3290150693 0.4895990424
H 3.2482718902 0.3437815612 -0.8260664290
H 2.4875244654 1.0180766021 0.6175173685
H 1.9413715899 -0.8814799710 -2.0860098788
H 0.6924412905 0.2096152172 -1.4649210645
H -0.3360639718 -1.7719094404 -2.5275690881
H 0.6000025607 -2.8590381476 -1.4901832128
H -1.6254926917 -2.7069521871 -0.5519834438
H -1.0761989994 -1.6793618233 1.7041684930
H 0.1441205615 -2.8015850470 1.0834014798
H 0.3030870078 0.2694687071 0.9919148545
H 1.2285572179 -0.8180192232 2.0261185351
H -1.4363655809 0.2202062322 -0.2517305631
H -4.6225950430 -2.5233131396 -4.5954797499
H -6.0632058960 -1.0300939066 -5.9729206402
H -6.2047887882 1.3865513206 -5.4966210725
H -4.9202117112 2.3978729566 -3.6263248947
H -3.6055202368 2.7295500910 -1.7732772495
H -3.1502751759 1.9267313275 -0.2746782905
H -1.1884436019 2.9712919442 0.5007817467
H 1.1854184440 3.6568180989 0.1676297026
H 0.9111644514 2.6003089142 -3.9785572252
H -1.4598987836 1.9099656821 -3.6523010611
