46
CONF3
C 1.6813015586 -0.3604252837 1.3472778499
C 2.4881430557 0.1441381014 2.5409555134
C 3.8870080474 -0.4688635416 2.5021405510
C 4.6457291279 0.0116284749 1.2651136285
C 3.8173123268 -0.0335888467 0.0015919805
C 2.4266045321 -0.1855900124 0.0496477904
C 1.6745425179 -0.1711317279 -1.1352385835
C 2.3090471406 -0.0143162419 -2.3683576357
C 3.6900965642 0.1342126757 -2.4203580516
C 4.4329889824 0.1263201823 -1.2439480206
C 0.1858306563 -0.3573429479 -1.1269316018
O -0.4049620692 -0.6323300393 -2.1818147657
N -0.4327485952 -0.2224133598 0.0801084682
C 0.3351742522 0.3295982924 1.2139715114
C -1.8916105051 -0.3320107060 0.3017034233
C -2.6187004703 -1.4889285813 -0.4490885592
N -3.8681054185 -1.0208402351 -1.0720760056
C -3.5608226626 0.0114749494 -2.0841311147
C -2.8247843349 1.2314896869 -1.4622552552
C -2.6660319367 0.9757722203 0.0406571615
C -4.0625047332 0.7937861700 0.6528622850
C -4.7364085587 -0.4297611429 -0.0351522475
H 1.4915390404 -1.4365135916 1.4920719212
H 1.9704132808 -0.1162739811 3.4705971545
H 2.5630010052 1.2398775911 2.4996119181
H 4.4500958488 -0.2082325265 3.4040781315
H 3.7970941494 -1.5629304273 2.4821171629
H 4.9696019384 1.0503605310 1.4219479822
H 5.5610996379 -0.5733492761 1.1207174883
H 1.7111923221 -0.0092949878 -3.2729562878
H 4.1885314605 0.2597764619 -3.3765927110
H 5.5123848554 0.2512022282 -1.2862653057
H 0.4830780990 1.4126522633 1.0836284204
H -0.2521161309 0.1798320105 2.1236519347
H -1.9771796326 -0.5334360964 1.3748925103
H -2.8698560868 -2.2801762944 0.2661370999
H -1.9805458349 -1.9136362285 -1.2234629412
H -2.9443271573 -0.4508231675 -2.8606368899
H -4.5095680012 0.3177508411 -2.5402590561
H -3.4031275789 2.1516450573 -1.6048851863
H -1.8482285005 1.3762982424 -1.9307028602
H -2.1458458949 1.8101337927 0.5239888310
H -3.9835313740 0.6385234605 1.7349637341
H -4.6472975639 1.7062184238 0.4932727357
H -4.9638052356 -1.2119152517 0.6985270706
H -5.6797019018 -0.1385669602 -0.5111209728
