63
CONF168
C 3.0145896017 -1.0757940223 0.4889678626
C 1.9672247387 -0.7267210220 -0.5645867030
N 1.3455830629 0.5745299298 -0.2813206689
C 2.3730273821 1.6251413739 -0.3174883226
C 3.4353479169 1.3901004810 0.7515411943
C 4.0785805811 0.0199256355 0.5407422369
N 5.1253827699 -0.2625547710 1.5220892921
C 5.0065391463 -0.3901553741 2.9041824191
C 3.9225676388 -0.3040816250 3.7698441720
C 4.1636401510 -0.4891601695 5.1345887822
C 5.4454839305 -0.7515680714 5.6211251008
C 6.5388246546 -0.8390687564 4.7558940458
C 6.2988428776 -0.6555035031 3.4043582805
N 7.1506414167 -0.6790642855 2.3157293120
C 6.4559665474 -0.4389830236 1.1450095130
O 6.9160518222 -0.3905580257 0.0056364696
C 0.2824397475 0.8790439477 -1.2496520239
C -0.9725139549 0.0291039010 -1.0672191288
C -2.0753528014 0.4611356578 -2.0327154186
C -3.3510492306 -0.3909768027 -1.9156200655
C -4.0223599602 -0.3350979342 -0.5528411295
C -4.7147739769 -1.4604892684 -0.0942261169
C -5.3960065458 -1.4520209936 1.1193546336
C -5.3705340937 -0.2903205434 1.8715738664
C -4.6945001867 0.8457761759 1.4643049590
C -4.0203910050 0.8123131755 0.2452830138
F -6.0317754458 -0.2671365769 3.0609000398
C -4.3372029726 -0.0322338634 -3.0164572005
C -4.5879667941 -0.9282145739 -4.0578419707
C -5.4660565197 -0.6088020430 -5.0924912453
C -6.0851823667 0.6272817111 -5.0627793083
C -5.8676518264 1.5477694210 -4.0508391881
C -4.9894897854 1.2049665487 -3.0273715849
F -6.9445779801 0.9530604391 -6.0668110679
H 3.4810609418 -2.0354446276 0.2403769312
H 2.5243316000 -1.1822919974 1.4624783428
H 1.1963495504 -1.5022953582 -0.5705856428
H 2.4402221349 -0.7231098586 -1.5688583450
H 2.8588854175 1.6704600465 -1.3143641273
H 1.8883339218 2.5929360147 -0.1470691923
H 2.9691502523 1.4471820609 1.7410886324
H 4.1996614370 2.1728788600 0.6930636490
H 4.6002934835 0.0334174426 -0.4240226900
H 2.9197082014 -0.1008736632 3.4163714463
H 3.3303489670 -0.4256840032 5.8266976848
H 5.5984899279 -0.8901698093 6.6863083901
H 7.5392052300 -1.0422284578 5.1231702544
H 8.1449313352 -0.8416868028 2.3369953092
H 0.6516771170 0.7782681496 -2.2907111439
H 0.0062437908 1.9327702253 -1.1136656285
H -0.7558870535 -1.0317070877 -1.2400786592
H -1.3161934414 0.1219479120 -0.0300514368
H -2.3159448974 1.5219625638 -1.8867612636
H -1.7124491401 0.3714976575 -3.0644022661
H -3.0591551002 -1.4352560367 -2.0818789133
H -4.7249911540 -2.3630812246 -0.6995681747
H -5.9319392262 -2.3243952394 1.4777517695
H -4.6925699481 1.7332270194 2.0881271147
H -3.4827761286 1.6997580759 -0.0723615048
H -4.0906865840 -1.8940785790 -4.0658015522
H -5.6661678709 -1.3017755406 -5.9027206993
H -6.3766695631 2.5056181374 -4.0658420939
H -4.8168083808 1.9155484652 -2.2245493355
