47
CONF131
C -5.1788664981 2.7104222586 3.3007936128
C -5.9627778248 1.8012928204 2.3563485953
C -5.0832370109 1.2396439054 1.2381113395
C -5.8852446444 0.3590635757 0.2989278389
O -5.0396767470 -0.1403451561 -0.7857439176
C -4.3265754893 -1.2461479786 -0.5332329634
O -4.3428867021 -1.8721766108 0.5033481199
C -3.5210568795 -1.6415771473 -1.7716972041
C -4.3817822905 -2.5053020969 -2.6823193393
O -2.3909707294 -2.4281752363 -1.3996035737
C -1.3812676081 -1.8200037064 -0.7018523013
C -0.3008167911 -2.6455680639 -0.3754047716
C 0.7810715821 -2.1320859725 0.3240101262
C 0.7753314543 -0.7942357891 0.6957241092
C -0.2893765544 0.0334775908 0.3874465283
C -1.3776633867 -0.4765463953 -0.3190948697
O 1.8339421486 -0.2999255500 1.4729980062
C 2.8784532521 0.2934190947 0.8375781746
N 2.8697301704 0.3966273641 -0.4825986001
C 3.9190888515 0.9923204283 -1.0654164518
C 4.9930836631 1.4947078739 -0.3464380766
C 4.9866557021 1.3705924954 1.0494093266
C 3.9135056214 0.7618672745 1.6602988672
C 6.1564974053 2.1365595444 -1.0252778679
F 5.9239147607 2.3861328457 -2.3331906185
F 7.2746483144 1.3600031993 -0.9665285921
F 6.4913761281 3.3196920652 -0.4453876161
H -4.3538084572 2.1647481258 3.7712185818
H -5.8198427839 3.1042033969 4.0953864881
H -4.7520470054 3.5608052640 2.7581763268
H -6.7996391832 2.3584858531 1.9155963427
H -6.4027520926 0.9704322953 2.9224069676
H -4.2616308677 0.6558466954 1.6706892016
H -4.6368741856 2.0622775488 0.6655957181
H -6.3283249155 -0.4931125624 0.8218416409
H -6.6688711524 0.9252618839 -0.2097953782
H -3.1990685198 -0.7356798393 -2.3008630660
H -3.8037970307 -2.7937578342 -3.5634642385
H -4.7046875270 -3.4056186504 -2.1523606794
H -5.2615539785 -1.9433668314 -3.0044383912
H -0.3236287487 -3.6875293309 -0.6764209659
H 1.6260407728 -2.7621086932 0.5812696803
H -2.2006726847 0.1880629803 -0.5540647302
H 3.8892198461 1.0675595888 -2.1491105853
H 5.8125665983 1.7504778759 1.6421934590
H 3.8543421543 0.6417451301 2.7354155178
H -0.2727586392 1.0745304446 0.6924118730
