41
CONF50
C -5.1131436029 0.6667587822 1.7210089923
C -4.1865429411 0.1216770316 2.6031332769
C -3.3116644628 -0.8718032392 2.1695303876
C -3.3532819749 -1.3326442191 0.8510816236
C -4.2910691009 -0.7792797528 -0.0258547949
C -5.1646666117 0.2120655909 0.4054216930
C -2.3688933298 -2.3630244138 0.3607836127
C -1.2697554894 -1.7281169312 -0.4998190572
N -0.6002783259 -0.6698630222 0.2599237252
C 0.5777402669 -0.1087531067 -0.1548222692
C 1.3848189243 -0.6698218618 -1.1617195729
C 2.6126780117 -0.1207355152 -1.4964593723
C 3.0811158557 1.0262183856 -0.8665933147
C 2.2831881041 1.6143467492 0.1379739609
C 1.0707425803 1.0423957642 0.4852754642
C 2.7222052779 2.7940862354 0.9760342274
F 3.6014821518 2.3911179794 1.9399351440
F 1.6877235316 3.3729376130 1.6190064970
F 3.3339502738 3.7596464490 0.2666637453
S 4.6640256116 1.6517532000 -1.5405896679
O 4.4196699228 2.9389642230 -2.1847302929
O 5.2349664556 0.5155021720 -2.2644385182
N 5.7200631618 1.9456381202 -0.2637394763
S 0.8272081235 -2.1326104618 -2.0326189506
O 1.9214916837 -3.0975991182 -2.1125117107
O 0.0699077486 -1.7149219138 -3.2120410331
N -0.3139094154 -2.7493737792 -0.9192957272
H -5.7970111187 1.4389421974 2.0572716264
H -4.1468904712 0.4639716667 3.6322033957
H -2.5967765558 -1.3042510688 2.8651395464
H -4.3395064591 -1.1333624684 -1.0522934739
H -5.8903069449 0.6288162877 -0.2854500801
H -1.9038864350 -2.8761099810 1.2105670149
H -2.8652215204 -3.1170192209 -0.2574103491
H -1.7189096368 -1.3224606730 -1.4191610518
H -1.2029019315 -0.0993211619 0.8366463950
H 3.2220995731 -0.5926066867 -2.2600581380
H 0.4805118481 1.4868395272 1.2785867636
H 5.8766312920 1.1180923136 0.3027470661
H 5.4551958922 2.7519603586 0.2910545922
H 0.1872022385 -3.1580521412 -0.1297424181
