82
CONF25
C -5.8569354141 -1.3436590570 -1.7378049266
C -4.6577111108 -0.6801748846 -2.3570011051
C -4.1152857647 -1.1385601469 -3.4916225311
C -4.0637393636 0.5054703555 -1.6405841282
C -5.0537113968 1.5723240345 -1.1401384596
C -4.2417191895 2.3201746457 -0.0816966196
C -3.5183999388 1.2045999331 0.7068679293
C -3.2620453463 0.0928072953 -0.3658978016
C -1.7697348426 -0.1812267496 -0.6342273663
C -1.0570536432 0.9825816905 -1.3749767719
C 0.3254914445 1.3150333790 -0.8194298293
C 1.1474557441 0.0380001258 -0.6555175287
C 2.6968015832 0.3440934092 -0.4894006607
C 2.9863446993 1.5881248979 0.3808658946
C 4.4862617714 1.8545664752 0.5577538357
C 5.2568211334 0.6782679328 1.1465534962
C 4.9850303235 -0.6456758881 0.3839525203
C 3.4520415747 -0.8721846745 0.1290435637
C 2.7616594616 -1.3943279013 1.4244464458
C 1.3151795640 -0.9547145984 1.6479146930
C 0.4818892243 -0.9475890452 0.3660187174
C -1.0438197236 -0.5848015742 0.6796278458
C -1.2260584225 0.5574996897 1.7412319211
C -2.2141642527 1.6775861685 1.3606494820
C -1.7254078194 -1.8465149946 1.2562901206
C 0.5556690852 -2.3603354408 -0.2585272972
C 5.8051399249 -0.5958000644 -0.9257423336
C 5.5768236298 -1.8410054611 1.1575103162
O 4.9130925064 0.6351246948 2.5491466769
C 3.1577622907 0.6280672512 -1.9397488623
C -4.4692669490 0.6324747611 1.7781929779
O -4.8442891472 1.5725762566 2.7954239804
H -6.7454687455 -0.7088672825 -1.8365455444
H -5.7120632848 -1.5125283083 -0.6642680202
H -6.0694182690 -2.3023280192 -2.2173589033
H -3.2588038862 -0.6438567595 -3.9433387629
H -4.5095342004 -2.0173544005 -3.9953948429
H -3.3767962202 0.9997308899 -2.3357758934
H -5.4096640076 2.2188812301 -1.9490940712
H -5.9321667990 1.1057431439 -0.6813904138
H -3.4986026562 2.9594806927 -0.5738289334
H -4.8514005757 2.9760632994 0.5505358765
H -3.6973579645 -0.8440911722 0.0018528499
H -1.7364827608 -1.0594976752 -1.2924563620
H -0.9382091405 0.7074188927 -2.4311833920
H -1.6744157330 1.8859910945 -1.3712175294
H 0.2483487595 1.8478559686 0.1322123818
H 0.8184250795 2.0074798301 -1.5102683246
H 1.0813404342 -0.4719578008 -1.6284079848
H 2.5272329034 1.4799405608 1.3688160080
H 2.5339416242 2.4751300478 -0.0759943008
H 4.9403776279 2.1246778194 -0.4001579280
H 4.6316844787 2.7194975406 1.2154375601
H 6.3375930951 0.8850630852 1.0654474841
H 3.4037803714 -1.6749036128 -0.6200331110
H 2.8145273932 -2.4887384721 1.4196330283
H 3.3264282704 -1.0631362212 2.2955508898
H 1.3163242352 0.0418953815 2.0937174171
H 0.8610816397 -1.6172579740 2.3956696175
H -1.5451203460 0.1020970927 2.6867622337
H -0.2754900401 1.0454454112 1.9661529331
H -2.4547603995 2.2542336666 2.2618751829
H -1.7198927175 2.3781497409 0.6821372196
H -1.8875323908 -2.6147839265 0.4946671595
H -2.6961529678 -1.6081604531 1.6921325647
H -1.1193413277 -2.2798060286 2.0576560901
H 0.3399158883 -3.1476892239 0.4691738228
H 1.5562241719 -2.5455200693 -0.6547937714
H -0.1429613776 -2.4639101632 -1.0953582807
H 6.8686269227 -0.7179391216 -0.6933470991
H 5.7001785097 0.3379033197 -1.4749089292
H 5.5099222285 -1.4143154606 -1.5903188048
H 6.6485987653 -1.6800164874 1.3238019919
H 5.4668547443 -2.7547046147 0.5617531855
H 5.1092504034 -2.0258248513 2.1263224200
H 5.4616250165 -0.0393868375 2.9675592433
H 4.0817049192 1.1999461041 -2.0056464232
H 2.3952259934 1.2100655017 -2.4659287370
H 3.2982959454 -0.3077993346 -2.4910871633
H -5.3666174605 0.2151932492 1.2982641760
H -3.9738432207 -0.1833312742 2.3126183044
H -5.4695363593 2.1970197675 2.4091804903
