57
CONF113
C -4.1792919241 0.3148065395 -3.4749480119
C -3.8358102096 0.5730511907 -2.0025201966
C -2.3600355230 0.4616282252 -1.7028080822
C -1.8361443058 -0.4543343090 -0.8478568426
C -2.6510203468 -1.5482722802 -0.2564008988
C -3.3576976588 -2.4503667630 -1.0615635522
C -4.0934463798 -3.4874496882 -0.4942793397
C -4.1355715299 -3.6412093307 0.8896671418
C -3.4274817694 -2.7560858224 1.7021379311
C -2.6841844147 -1.7271193074 1.1335008170
C -0.4221792923 -0.4268176754 -0.4005535795
C 0.3285113513 -1.6114863621 -0.3425251690
C 1.6504992793 -1.6089063294 0.0707514434
C 2.2658747138 -0.4120065934 0.4582985680
C 1.5275237125 0.7759824806 0.4387573751
C 0.2025684416 0.7536227854 0.0136647305
O 3.5785194659 -0.5173484184 0.8135668983
C 4.2498334561 0.6295078277 1.3686101939
C 3.8612363621 0.9067836682 2.8127380064
N 4.1314826346 -0.2090046708 3.7233672945
C 5.5688113609 -0.4063330365 3.9255068034
C 3.4864004216 0.0447124376 5.0147094757
C -1.5025939580 1.4325487537 -2.4289197494
C -1.7785087714 2.8061071408 -2.4108400502
C -0.9792861942 3.7032946991 -3.1140697167
C 0.0988692296 3.2433379950 -3.8673447642
C 0.3694085880 1.8761346884 -3.9131842703
C -0.4229841141 0.9821734134 -3.2017373249
H -3.8918008342 -0.6982791384 -3.7740195739
H -3.6560387691 1.0189021916 -4.1296460432
H -5.2544764673 0.4295989525 -3.6428062636
H -4.1597254293 1.5911791069 -1.7462791836
H -4.4014919695 -0.1053611773 -1.3599528503
H -3.3143259233 -2.3441564816 -2.1411176301
H -4.6291409614 -4.1807296335 -1.1358444776
H -4.7092053406 -4.4494538586 1.3325750587
H -3.4523850947 -2.8704461462 2.7817167835
H -2.1253737609 -1.0454935459 1.7686901551
H -0.1319728398 -2.5496489333 -0.6391416252
H 2.2280476171 -2.5277138304 0.0968059575
H 1.9603306403 1.7175109310 0.7538879197
H -0.3601596500 1.6816634610 0.0108873494
H 5.3111797940 0.3876927346 1.2796646265
H 4.0628033454 1.5194900748 0.7559100071
H 2.7888698881 1.1266649228 2.8627768817
H 4.3944405893 1.8296584376 3.1222282110
H 5.7249923064 -1.2323520477 4.6264913324
H 6.0616519818 0.4957673851 4.3370516428
H 6.0629344977 -0.6694464902 2.9861179794
H 3.6651164177 -0.8006491778 5.6869744850
H 2.4058223641 0.1549004476 4.8762887856
H 3.8688188911 0.9609167194 5.5046917483
H -2.6095698000 3.1812162487 -1.8211113458
H -1.1996019765 4.7658626749 -3.0723444400
H 0.7188195364 3.9429021809 -4.4193703098
H 1.1984140509 1.5048880211 -4.5084204732
H -0.2102775284 -0.0820347005 -3.2384303305
