47
CONF63
C -4.7844857900 1.3570351362 -0.5444633158
C -3.5629735672 1.1006852046 0.3090716677
C -3.7055011109 0.4199709077 1.6506213117
C -3.1549190798 -0.3669133436 0.4611844372
C -1.7356778709 -0.7478555625 0.4757674569
O -0.8642119660 -0.3150759605 1.1981682479
O -1.4937520981 -1.6850187149 -0.4950139958
C -0.0945995200 -2.0361702390 -0.6460125912
C -0.0880109626 -3.3052564196 -1.3738606404
N -0.0373547816 -4.3012588602 -1.9556919929
C 0.6723062117 -0.9697169240 -1.3984051790
C 1.8396296636 -0.4532398898 -0.8437751971
C 2.5462275893 0.5376426844 -1.5189145790
C 2.0478497366 1.0012359444 -2.7373450961
C 0.8840969967 0.5010899898 -3.2915411275
C 0.1935954071 -0.5024049562 -2.6217277332
F 2.7277235713 1.9725930025 -3.3807807131
O 3.6708100535 1.1457830311 -1.0310601322
C 4.5182899129 0.4102773775 -0.2046004034
C 4.9338817164 1.0132892927 0.9749923555
C 5.8426790392 0.3417342454 1.7899561992
C 6.3179433929 -0.9162999550 1.4274701032
C 5.8885533374 -1.5030553298 0.2377017218
C 4.9878240087 -0.8411912898 -0.5912296593
C -5.0061333700 0.0361649208 2.2034040941
C -5.3477198298 0.1144423543 3.4899541605
Cl -4.2911744082 0.6933924927 4.7486133322
Cl -6.9249318079 -0.3627361710 4.0641339413
C -2.5000509965 2.1673445219 0.1823345034
H -5.2886372184 2.2688643770 -0.2058477887
H -5.5009599085 0.5338227441 -0.5162236174
H -4.4800111509 1.5042823401 -1.5857397962
H -2.9440443799 0.6996371482 2.3721163671
H -3.8175113550 -1.0794862138 -0.0182404620
H 0.3545811744 -2.2011686815 0.3400193261
H 2.1977854057 -0.8061943180 0.1176783485
H 0.5394510644 0.8912821152 -4.2429739621
H -0.7160349998 -0.9108452707 -3.0494599888
H 4.5484772638 1.9917424033 1.2412325855
H 6.1738916795 0.8052490562 2.7137865313
H 7.0224778062 -1.4373205495 2.0672308858
H 6.2626314045 -2.4791027552 -0.0547109258
H 4.6545858772 -1.2853889976 -1.5236083376
H -5.7639596679 -0.3466769757 1.5267705496
H -2.1341263090 2.2158743805 -0.8495893707
H -1.6520902749 1.9890481600 0.8452648433
H -2.9364196139 3.1398936585 0.4329737697
