27
CONF3
C -5.4935349699 -0.8123679428 0.7924222931
C -3.9998071694 -0.8704302245 0.6897513453
C -3.2279531504 -1.7304487599 1.4768239582
C -1.8473249415 -1.7909402419 1.3861601789
C -1.1756765435 -0.9650557639 0.4778253270
C -1.9102545957 -0.0898465140 -0.3268585486
C -3.2934714814 -0.0629399598 -0.2038630479
N 0.2260173147 -1.0684232309 0.4486609896
C 1.1101648073 -0.4575356711 -0.4085307979
O 0.7891064316 0.2876844672 -1.3227839876
C 2.5403505818 -0.7736930855 -0.1513005252
C 3.5506391656 -0.6550758238 -1.0925143651
N 4.7808766458 -0.9907629868 -0.5883852722
N 4.8308962218 -1.3390666624 0.6257602251
S 3.2170326296 -1.2884617989 1.3392319932
C 3.4339024242 -0.2244504396 -2.5140055048
Cl -4.0200393955 -2.7883029426 2.6340126615
H -5.8105082900 -0.5479099535 1.8064992725
H -5.8953733207 -0.0713154822 0.0986323369
H -5.9435960468 -1.7838368767 0.5625465943
H -1.4069185225 0.5513459749 -1.0344103095
H -3.8549028006 0.6204933827 -0.8340514643
H 4.3597817191 -0.4661321678 -3.0381367904
H 2.5885120370 -0.7104551315 -3.0051790408
H 3.2548027670 0.8528138360 -2.5755151776
H 0.6207907665 -1.7264165714 1.1042071218
H -1.2996744905 -2.4784233680 2.0227899633
