39
CONF10
C -0.2385096617 -1.9097088479 -2.5346032970
C 0.2934031700 -0.6627542206 -1.8218401966
C -0.6763797655 0.5250137073 -1.9886513969
C -1.7834791342 0.5812244446 -0.9286229702
C -1.3846867528 1.4417381571 0.2903688374
C 0.0067815849 1.2022622357 0.8301686766
C 0.8541063585 0.2091786499 0.5495006993
C 0.5896533318 -0.9946092253 -0.3449750316
C 1.8313774007 -1.9008069958 -0.1601031041
C 2.4563311646 -1.4416986725 1.1648385191
C 2.2335358476 0.0810317269 1.1689291621
C 3.2879082231 0.8193037499 0.3301463364
C -2.4109191506 1.3431890138 1.4094283027
C -3.1778364930 2.3883391059 1.7365238810
C -2.5110225172 0.0276056198 2.1281396878
H -0.3582746170 -1.7265628039 -3.6075282636
H -1.2169371083 -2.1937558981 -2.1274519679
H 0.4364726446 -2.7625385947 -2.4085011169
H 1.2478238106 -0.3820166399 -2.2898587494
H -0.1151323104 1.4667906354 -1.9560530853
H -1.1203059788 0.4664931394 -2.9896371002
H -2.0603248536 -0.4320420496 -0.6201522948
H -2.6905451418 1.0271331837 -1.3523303727
H -1.4014436587 2.4869984313 -0.0538551542
H 0.3376983305 1.9600875661 1.5437327049
H -0.2843336732 -1.5227672199 0.0609255408
H 1.5774932868 -2.9644568068 -0.1558985631
H 2.5335404711 -1.7382677059 -0.9871067189
H 3.5121917179 -1.7167614509 1.2594305791
H 1.9131652555 -1.8909489648 2.0053513290
H 2.2455411361 0.4909027797 2.1853309559
H 4.2903250041 0.6621826793 0.7441788444
H 3.2866316180 0.4651373648 -0.7063520715
H 3.0821294776 1.8942846203 0.3164452619
H -3.0887799150 3.3371361271 1.2132710257
H -3.9154896102 2.3228726921 2.5323781442
H -2.7867639637 -0.7808084818 1.4413576979
H -1.5409203611 -0.2469903420 2.5592250946
H -3.2540257654 0.0685901795 2.9281106636
