43
CONF51
C 3.6799364148 0.5874404102 -0.7177335514
C 3.5473310948 -0.7709611929 -0.5475842934
C 2.3724014037 -1.3812770734 -1.0232208330
N 1.4127367268 -0.7279822312 -1.6678198795
C 1.5524770038 0.5946733389 -1.8230364279
C 2.6533454758 1.2957877201 -1.3588472614
C 2.7635914319 2.7730063879 -1.5181503113
F 2.9990346842 3.3954042992 -0.3308046038
F 3.7963486190 3.1278369467 -2.3339551241
F 1.6451900877 3.3275444927 -2.0396852979
O 2.2497656963 -2.6999685671 -0.7852562945
C 0.9687031777 -3.3373497476 -1.0391730005
C 0.8076708145 -4.4610795460 -0.0307862507
C 1.0132967579 -4.0577501874 1.4208150018
O -0.0330944049 -3.1918161303 1.9540822756
C 0.0003157279 -1.8666980445 1.6448015002
C 0.9805685257 -0.9744774178 2.1130197994
C 0.9616740798 0.3770418025 1.8150422848
C -0.0833800983 0.8986066385 1.0516369761
C -1.1174411764 0.0681099243 0.6236850122
C -1.0523786755 -1.2867661670 0.9259381352
Cl -2.3544053690 -2.3179399220 0.3689750894
O 0.0111175598 2.2303997145 0.7736652364
C -1.0586591050 2.8536601386 0.0399682407
C -2.2700158828 3.0196229818 0.9008809149
C -3.5272178813 2.8015908197 0.5286999598
Cl -4.8757469542 3.0596035188 1.5992690129
Cl -3.9885033156 2.2389985861 -1.0533538736
Cl 2.2567532796 -1.5595481794 3.1615589160
H 4.5599797813 1.1041638781 -0.3476270533
H 4.3010589248 -1.3634584215 -0.0424213488
H 0.7432298503 1.1069600424 -2.3372115949
H 0.9690426499 -3.7238969294 -2.0640694155
H 1.5427745362 -5.2491918145 -0.2392289857
H 1.9895464074 -3.5862465342 1.5491284212
H 0.9672820997 -4.9423889765 2.0597670610
H 1.7442102654 1.0345479610 2.1748762432
H -1.9534864556 0.4346154148 0.0448473762
H -1.2647417809 2.3071336630 -0.8865621062
H -0.6578360010 3.8372892440 -0.2249136496
H -2.0971330150 3.3752239512 1.9132086221
H -0.1864122678 -4.9012963091 -0.1672027999
H 0.1758778179 -2.5945572828 -0.9567482319
