51
CONF20
C 5.5606787106 0.1320340799 2.5428776710
C 5.4288946294 -0.6639379456 1.2722748314
C 6.4482712973 -1.3556613190 0.7058742098
C 7.8656181175 -1.4492592156 1.1547016657
O 8.7646818100 -0.9530384866 0.1440535589
C 4.1330400127 -0.6956506989 0.6290160447
C 3.0015611226 -0.0897494052 1.0748949665
C 1.7556586000 -0.1660843898 0.3823290378
C 0.5621135674 0.4006666527 0.7345157589
C 0.3738188776 1.2302159760 1.9722064960
C -0.5750085634 0.1946290947 -0.1291868413
C -1.8263478255 0.6664359654 0.0770730854
C -2.9684857832 0.4480143408 -0.8088826506
C -2.8812997195 0.5768611417 -2.1553013588
C -1.6776930947 1.1103003672 -2.8818532001
C -4.0204628962 0.2386894542 -3.0817079493
C -5.1283999567 -0.5634286737 -2.4158151497
C -5.4637470066 0.0798111041 -1.0794326550
C -4.2764294599 0.0560284925 -0.1013433214
C -4.6017986410 1.0443866308 1.0356737424
C -4.1165048463 -1.3488715727 0.5085626698
H 5.2234357740 1.1621352354 2.3851837506
H 4.9329579895 -0.2968038354 3.3321683080
H 6.5849315095 0.1647834391 2.9127355142
H 6.2404957130 -1.8926218737 -0.2195343909
H 8.0386677104 -0.9373146801 2.1099715151
H 8.1514723984 -2.4991719782 1.2906252049
H 8.4394603340 -0.0829687061 -0.1155358917
H 4.0758044801 -1.2683406529 -0.2963319391
H 3.0422792104 0.4765073282 2.0005015915
H 1.7665363042 -0.7468414874 -0.5403189425
H -0.3853952832 0.7817377945 2.6235935254
H 1.2900106297 1.3358131081 2.5522515989
H 0.0208260376 2.2345787049 1.7122800212
H -0.3938716695 -0.4131423198 -1.0139453316
H -2.0227338866 1.2069792858 0.9995753562
H -2.0067183341 1.7956549360 -3.6733016215
H -1.1230372496 0.3062426697 -3.3833531708
H -0.9853204141 1.6371338059 -2.2238456559
H -4.4287364060 1.1750413775 -3.4952430533
H -3.6128286067 -0.3039460576 -3.9464415168
H -6.0128594038 -0.6034066934 -3.0611519334
H -4.7988259254 -1.5984710356 -2.2656057170
H -6.3206307875 -0.4137386321 -0.6044004839
H -5.7547753111 1.1248392228 -1.2569703801
H -4.5633092195 2.0797201210 0.6806340815
H -5.6144013852 0.8486769507 1.4051954958
H -3.9218220622 0.9412187257 1.8857796764
H -5.0181386496 -1.6294156295 1.0653035270
H -3.9363506018 -2.1027827211 -0.2634103173
H -3.2652838424 -1.3744889951 1.1961678830
