44
CONF17
C -3.2677307131 2.0407775816 1.3038392677
C -3.0891606020 0.5618389610 1.5720748179
C -3.7766104932 -0.3241892143 0.5509514748
O -1.6334957223 0.3253394683 1.5060779512
C -1.1431801003 -0.7229077564 2.1769132553
O -1.8000787448 -1.4947682638 2.8443083188
C 0.3827399708 -0.7962994131 2.0660325723
C 0.9182254284 -2.1853919896 2.3836214352
N 0.8723601787 -0.2705273854 0.7820446753
C 0.9169897255 -1.1450320643 -0.3410884168
C -0.2495348355 -1.7659856451 -0.7873634636
C -0.1938076131 -2.6308592590 -1.8713584271
C 1.0202230458 -2.8601900203 -2.5113199933
C 2.1836757628 -2.2543089173 -2.0695885400
C 2.1344872639 -1.4074650004 -0.9701827953
F 1.0685173388 -3.6903907829 -3.5689785467
Cl -1.6406918354 -3.4154590425 -2.4474668560
C 1.3542630557 1.0186862504 0.7399611197
O 1.5305793475 1.6857805875 1.7599447521
C 1.6175647809 1.6156877594 -0.6051533104
C 2.8153473151 2.3043549833 -0.8090050166
C 3.0591679980 2.9296366329 -2.0267681028
C 2.0949067061 2.8991251410 -3.0329933884
C 0.8855577725 2.2403306650 -2.8189908461
C 0.6489149601 1.5902341449 -1.6123977002
H -2.8946083657 2.2973409132 0.3072147210
H -4.3314500593 2.2909034215 1.3509459569
H -2.7361275654 2.6398198214 2.0479074468
H -3.4125806240 0.3060676418 2.5856030746
H -3.5925619503 -1.3819893963 0.7571577817
H -4.8560500551 -0.1496642310 0.5880896257
H -3.4224695498 -0.0865485446 -0.4577388140
H 0.7483186215 -0.0890769558 2.8221335144
H 0.5257757444 -2.9402144675 1.6975019994
H 0.6284299022 -2.4607920200 3.3987634941
H 2.0092366748 -2.1788923952 2.3178980511
H -1.2050140111 -1.5670731457 -0.3173961499
H 3.1175377201 -2.4653804060 -2.5790136352
H 3.0423020020 -0.9438296692 -0.6008051318
H 3.5536600838 2.3355416967 -0.0140240569
H 3.9997053304 3.4462147942 -2.1897377661
H 2.2828920048 3.3943358258 -3.9804177559
H 0.1255682043 2.2304303310 -3.5937907010
H -0.2917957868 1.0747893645 -1.4475372887
