61
CONF3
C -2.2100770888 -0.8445190901 -3.2073803227
C -1.2932747735 -1.6473957972 -2.2739695866
C -1.7613933228 -1.5947090150 -0.8401449500
C -2.4657433591 -2.6778068144 -0.3183899989
C -2.9980729502 -2.6595589771 0.9735813696
C -2.7957260010 -1.5214244227 1.7490068726
C -2.0797916689 -0.4187662134 1.2720740188
C -1.5606610496 -0.4506879164 -0.0352426715
C -0.8179420059 0.7026703798 -0.5700317709
C -1.3693489725 1.9970915553 -0.9189389724
O -2.5267510269 2.4388424388 -0.8196580116
N -0.3116333137 2.7096396238 -1.4736759726
N 0.8411037203 1.9377091481 -1.5005283296
C 0.5049106338 0.7601980396 -0.9034837017
O 1.4325769605 -0.2341007149 -0.7862474554
C 2.0984671013 -0.3199770938 0.4375620354
O 2.0601148372 0.5812377142 1.2336495881
C 2.7853122458 -1.6588483797 0.5837850906
C 3.6805564054 -1.6194428295 1.8239506460
C 3.6147939143 -1.9785000865 -0.6701620060
C 1.6707232566 -2.7124732029 0.7649803571
C 2.1523334980 2.5874748068 -1.4242493104
C 2.2497258234 3.6528226837 -0.3320516331
O 1.7545918739 4.9262058712 -0.7483598599
C 0.3304460232 5.0110561183 -0.7980024632
C -0.3063626358 4.1092405377 -1.8530983788
C -1.8458441984 0.7435881092 2.2068013095
C -0.8486550361 0.3918860013 3.3198845918
C -3.7897925556 -3.8279501702 1.4940033785
H -2.2340021237 0.2109408599 -2.9178398383
H -1.8597200589 -0.9064202620 -4.2425121744
H -3.2339033185 -1.2301044729 -3.1661464179
H -1.2741843089 -2.6933271914 -2.5977920274
H -0.2696824117 -1.2709838449 -2.3616806723
H -2.6125057932 -3.5577906757 -0.9413616535
H -3.1971221973 -1.4888554124 2.7598922596
H 4.1663800590 -2.5920698930 1.9428315016
H 3.0974583605 -1.4090280321 2.7244246283
H 4.4554321736 -0.8536042577 1.7245234587
H 2.9835212294 -2.0658138628 -1.5572527163
H 4.1272226472 -2.9326446350 -0.5144789390
H 4.3708365489 -1.2070800819 -0.8479112915
H 2.1378948100 -3.6874380398 0.9345943135
H 1.0370488489 -2.7756622467 -0.1237836399
H 1.0411019096 -2.4734639455 1.6288748073
H 2.3903976263 3.0339028773 -2.3959634012
H 2.8770949624 1.7903454871 -1.2406940147
H 1.7369549599 3.3120362609 0.5800166459
H 3.3085100647 3.8079179614 -0.1046450885
H -0.0988684094 4.7764357885 0.1887924906
H 0.1045520528 6.0525723344 -1.0458419690
H -1.3599834550 4.3835372474 -1.9656953596
H 0.1861857345 4.2340999185 -2.8241395716
H -2.8015979663 1.0354501057 2.6588544202
H -1.4772101090 1.6083889087 1.6497602469
H -0.6822942930 1.2522479363 3.9761048850
H 0.1141080029 0.0948057004 2.8932437506
H -1.2200173643 -0.4367537818 3.9309152384
H -3.3359244899 -4.7773171210 1.1942538454
H -3.8628537122 -3.8031010568 2.5842934326
H -4.8094170337 -3.8147246710 1.0906983526
