24
CONF2
C -2.9861302277 0.2340824058 1.7075054618
O -2.8890245398 0.4048529285 0.2867252116
C -1.6850101377 0.1350519231 -0.3008466674
C -0.5397593022 -0.3034826740 0.3555556839
C 0.6380559067 -0.5516973049 -0.3624934331
C 0.6473075194 -0.3487499161 -1.7404928367
C -0.4999262204 0.0865273678 -2.4052525982
C -1.6651534475 0.3299060398 -1.6945605316
O -2.7855503215 0.7521781360 -2.3551544799
C 1.8964272504 -0.9776389730 0.3642706117
C 2.7046795371 0.2126780647 0.8009815019
C 3.9543663223 0.4649518342 0.4157013699
H -2.7921308825 -0.8074372457 1.9879900750
H -2.2837383651 0.8959199687 2.2267781534
H -4.0096302465 0.5026365891 1.9689636268
H -0.5501738148 -0.4607904846 1.4286692294
H 1.5557352503 -0.5330358869 -2.3067766920
H -0.5009121672 0.2375675506 -3.4804543128
H -3.4961443623 0.8620523021 -1.7056235049
H 1.6170590781 -1.5677609745 1.2467662633
H 2.5059871186 -1.6155638085 -0.2844582327
H 2.1942664600 0.9080127318 1.4685453001
H 4.4850953361 1.3487246823 0.7573313234
H 4.4843048329 -0.2089854627 -0.2539773213
