46
CONF66
C -0.3162294001 2.9419105092 0.3072790318
C -1.6949177111 2.4123277917 -0.0813272142
C -1.7074907525 1.8469155695 -1.5013697241
C -3.0386932459 1.2481845936 -1.9161524838
O -3.3719954250 0.0828383313 -1.0884492958
C -2.7856681446 -1.0715780095 -1.4221836374
O -2.0341640142 -1.2329615762 -2.3600563344
C -3.2258056667 -2.2000772186 -0.4853527313
C -4.3430221353 -2.9989170272 -1.1347223097
O -2.1306363578 -3.1004317523 -0.2801309381
C -0.9995681335 -2.5954456847 0.3063214716
C 0.1375112937 -3.4038536120 0.2302247949
C 1.3354730067 -2.9738838241 0.7846113891
C 1.3848971364 -1.7379644839 1.4155009256
C 0.2614186843 -0.9332642911 1.5168462556
C -0.9395099725 -1.3601200094 0.9570727534
O 2.5871354571 -1.3486005575 2.0195038535
C 3.2213014107 -0.2492388582 1.5373930973
C 4.2410932640 0.2788063852 2.3413822285
C 4.9768934921 1.3769070136 1.9671177676
C 4.6885766608 1.9858065453 0.7342946297
C 3.6781063857 1.4717133655 -0.0886578592
C 2.9516481248 0.3606867572 0.3115664257
C 5.4307894335 3.1241896976 0.3247058932
N 6.0366760031 4.0540306428 -0.0109799821
F 4.4958491047 -0.3212449846 3.5210599500
H 0.4315914078 2.1417178111 0.2643379955
H 0.0060296906 3.7363813047 -0.3751578945
H -0.3158539789 3.3475110617 1.3237148874
H -2.0003971536 1.6339665675 0.6279539071
H -2.4404589186 3.2143883955 -0.0054201789
H -1.4776749117 2.6466544597 -2.2179571989
H -0.9201975548 1.0910150942 -1.6116571787
H -3.8642919787 1.9410765953 -1.7375206785
H -3.0364887533 0.9383222562 -2.9640597882
H -3.5653285694 -1.7811724165 0.4687401846
H -4.6430920308 -3.8133134728 -0.4708100046
H -5.2064282924 -2.3518463280 -1.3098145530
H -4.0060777984 -3.4136145148 -2.0885756994
H 0.0740861362 -4.3615077642 -0.2754941440
H 2.2284569830 -3.5867984530 0.7233802454
H 0.3166610462 0.0239477994 2.0257734157
H -1.8104728283 -0.7240894819 1.0515278972
H 5.7538113028 1.7565242499 2.6206861382
H 3.4650487221 1.9417953845 -1.0417375417
H 2.1714092781 -0.0376939360 -0.3263850656
