63
CONF253
C 7.5590869733 -2.9031172151 -3.3306968483
C 6.4466279344 -1.9802189278 -3.8215322313
N 5.5292988086 -1.6033293630 -2.7404478352
C 5.9684893893 -0.6130618668 -1.7568558541
C 4.7798800245 0.1625088656 -1.2450954426
N 3.7994695056 -0.7656510549 -0.6473875684
C 3.5947264090 -1.9885279488 -1.2391673601
O 2.7999385429 -2.8326950368 -0.8430222182
C 4.4157206792 -2.3263651308 -2.5155665019
O 4.0121081120 -3.2420037198 -3.2273255693
C 2.9924470405 -0.2172147580 0.4063411166
O 3.1084634046 0.9668097337 0.7031151772
N 2.1615848715 -1.0713362772 1.0379220821
C 1.2064052882 -0.5372897483 1.9886948953
C 0.3728554206 -1.6516844776 2.5869556006
C -0.3900735173 -2.4831054237 1.7615802323
C -1.1684138469 -3.4937305772 2.3168321231
C -1.1991577217 -3.6752530011 3.6985718209
C -0.4465524323 -2.8435607573 4.5234428908
C 0.3383693882 -1.8351013377 3.9693582507
C 0.2622338786 0.4711566805 1.2947746790
O -0.0115439260 0.4073053183 0.1017106349
N -0.2772527778 1.3950947311 2.1262338949
C -1.2361905762 2.3495578698 1.6649303320
C -2.5985586993 1.8875317308 1.0550880059
N -2.2793378968 2.6835218409 -0.1398028803
C -1.0249429215 3.0658994547 0.3073437411
O -0.1652097145 3.7556923601 -0.1873687331
C -3.3365994312 3.4386807365 -0.7882328113
C -4.6701853769 2.9708339999 -0.0926834750
S -4.1761598439 2.5806934432 1.6757063341
C -5.1650790230 1.7021666012 -0.7907261906
C -5.7581290620 4.0371312559 -0.0876261885
C -3.1431722513 4.9490920577 -0.7091257464
O -2.6954903730 5.3645491370 0.4852203792
O -3.4171691607 5.6904851928 -1.6271880065
H 8.2196222798 -3.1582491497 -4.1643098257
H 7.1392098552 -3.8281500147 -2.9247909957
H 8.1602416055 -2.4204517755 -2.5543765407
H 6.8640295055 -1.0558287355 -4.2346897200
H 5.8555362800 -2.4681890137 -4.5990740113
H 6.6539907591 0.0798880826 -2.2521272961
H 6.5063566797 -1.0936108175 -0.9278053564
H 5.0964632512 0.8589679264 -0.4691944427
H 4.3061941531 0.7326234719 -2.0533953115
H 2.0354083895 -1.9972011668 0.6396918331
H 1.7433720357 -0.0177145739 2.7904029682
H -0.3800377598 -2.3365409402 0.6848994180
H -1.7554808194 -4.1377166762 1.6697515487
H -1.8082749893 -4.4632202257 4.1300647046
H -0.4648640033 -2.9815365073 5.5999467087
H 0.9305456681 -1.1902337742 4.6124202456
H -1.3967080177 3.1084656841 2.4360069765
H -2.6680411326 0.8123586056 0.8672551939
H -3.4160087583 3.2015999985 -1.8546270230
H -6.0347465730 1.3026959522 -0.2636697340
H -4.3923784986 0.9293054457 -0.8281639398
H -5.4584720817 1.9441528416 -1.8184947113
H -5.4572104144 4.9328442227 0.4624780953
H -6.6645444304 3.6352160035 0.3729996630
H -5.9980015389 4.3186971513 -1.1182738511
H -0.0109309628 1.4065131278 3.0996905244
H -2.6165940943 6.3344208937 0.4607138840
