32
CONF7
C 2.2346820867 1.7527733240 0.6505218196
C 2.0870714842 1.9188730608 -0.8331551218
O 1.7658269901 2.9831946015 -1.3429041044
C 2.3246673785 0.6923086408 -1.6918254475
C 0.9840241446 0.1825118514 -2.2730358876
C 0.0078940586 -0.1992489023 -1.1885451472
C -1.0035814083 0.6866409862 -0.8131590431
C -1.8602481668 0.3745142751 0.2471198225
C -1.7036343911 -0.8333387255 0.9348818319
C -0.6889577556 -1.7188342674 0.5496585728
C 0.1663313246 -1.4078086348 -0.5056132943
O -0.6486332252 -2.8650711324 1.2951655807
C 0.3792959924 -3.8172767782 0.9897672507
O -2.5518735303 -1.1284234687 1.9669433668
O -2.8775501920 1.1690957389 0.6899010288
C -3.0624782158 2.4249957594 0.0242884762
H 3.2711941260 1.4749570650 0.8783233003
H 1.9635148915 2.6658960682 1.1823529974
H 1.6106762841 0.9130246043 0.9810470648
H 2.9900343578 0.9725375840 -2.5160019231
H 2.7989258137 -0.1017063697 -1.1072360615
H 0.5531688546 0.9664800791 -2.9035417744
H 1.1990191854 -0.6805517177 -2.9118386213
H -1.1135260893 1.6210708689 -1.3501562544
H 0.9556603432 -2.0906102996 -0.7984599080
H 1.3721343724 -3.3735445316 1.1250302289
H 0.2740631202 -4.1877308417 -0.0361032337
H 0.2417433489 -4.6374715356 1.6944717909
H -2.2939045771 -1.9938896682 2.3179066700
H -2.1720098812 3.0571597044 0.1223561831
H -3.9070006785 2.9009995195 0.5233533718
H -3.2965294484 2.2784726181 -1.0366696376
