35
CONF15
C -4.3570700878 -1.9298130037 0.6027959425
C -3.0834981607 -1.3125289917 1.1316219832
O -2.7952654064 -0.0800283958 0.4013415310
P -1.7327021602 -0.0132539219 -0.7783728677
S -1.1203282869 -1.6534689858 -1.5939827677
O -2.4357479324 1.0958822273 -1.6799499303
C -1.7936444986 1.5237021498 -2.9212954514
C -2.6017395111 1.0289384675 -4.0983037228
O -0.5026737002 0.9285876546 -0.1743496803
C 0.4418230435 0.3875835936 0.6224859535
N 0.1593497845 -0.4817739062 1.6262091092
C 1.3622307143 -0.6856426235 2.1314198934
N 2.3077846074 0.0232370092 1.4816901187
N 1.7112033786 0.7299348056 0.4799276660
C 3.7581640212 0.1158344375 1.6943638246
C 4.1343020335 1.5458962679 2.0715830261
C 4.4951765899 -0.3779168647 0.4527992638
Cl 1.7031003421 -1.7224549896 3.4593910554
H -5.1880925916 -1.2218255167 0.6629559416
H -4.6085613201 -2.8138821428 1.1979165058
H -4.2278774112 -2.2396247056 -0.4378845913
H -2.2314141931 -1.9918388315 1.0458823315
H -3.1758165042 -0.9968279973 2.1736430814
H -1.7654271436 2.6159128481 -2.8703148657
H -0.7648552494 1.1489613607 -2.9570208316
H -2.6080558103 -0.0637614396 -4.1221118989
H -2.1582271319 1.3976029258 -5.0289165344
H -3.6322389406 1.3888657550 -4.0372521361
H 3.9656032086 -0.5533539108 2.5354653852
H 3.5906452723 1.8722769734 2.9623218586
H 5.2067115257 1.5999885191 2.2779492997
H 3.9002745159 2.2270198765 1.2494542909
H 5.5729757272 -0.3576943091 0.6361457397
H 4.2720108005 0.2666320370 -0.4010997900
H 4.2018796761 -1.4011666687 0.2034912824
