45
CONF15
C 4.5295117799 3.2660530211 -1.6714346144
C 3.2282409664 2.6526077395 -1.1570378850
C 3.3590722761 2.1247405054 0.2731996327
C 2.0507991525 1.5966791647 0.8682361398
C 1.5029876160 0.3590394072 0.1579002534
C 0.2508445017 -0.2306311959 0.8298242527
C -0.1750622073 -1.5367783591 0.1357856897
C -1.3544325367 -2.2323115149 0.8147099580
C -1.6986898008 -3.5976923653 0.2128831089
C -2.1794280972 -3.5396177947 -1.2382338536
C -2.6213489566 -4.9065061682 -1.7586605303
C -0.8837787320 0.7715619413 0.8697837617
C -1.4114067951 1.2126538787 2.0856883240
C -2.4595351554 2.1314981099 2.1255717326
C -2.9992024327 2.6269550331 0.9415517005
C -2.4815967416 2.1954860777 -0.2796831146
C -1.4353825513 1.2781266706 -0.3132853480
H 4.8416574351 4.1071861496 -1.0421075703
H 4.4226099998 3.6342959532 -2.6968030800
H 5.3380704813 2.5263874486 -1.6624738756
H 2.4256015212 3.4022055609 -1.1889902138
H 2.9209837731 1.8413611746 -1.8279321547
H 4.1194221381 1.3308998937 0.2970333366
H 3.7386370423 2.9348140669 0.9107377448
H 2.2100394377 1.3510576122 1.9272538208
H 1.2969546928 2.3954488233 0.8463686884
H 2.2801730306 -0.4173737879 0.1349808564
H 1.2648503785 0.5936327263 -0.8871713101
H 0.5099792077 -0.4726549593 1.8705821629
H -0.4143064307 -1.3167558306 -0.9122696161
H 0.6873254865 -2.2177342441 0.1224381721
H -1.1213335213 -2.3580804118 1.8811264431
H -2.2390549873 -1.5827716161 0.7666020554
H -2.4826825822 -4.0672390987 0.8225054902
H -0.8209636138 -4.2569070870 0.2769200360
H -1.3816142460 -3.1479193790 -1.8806879021
H -3.0133113060 -2.8276707709 -1.3106932823
H -3.4449131902 -5.3058152173 -1.1560711944
H -1.7960953502 -5.6261773291 -1.7127073586
H -2.9603269710 -4.8508713002 -2.7980841736
H -0.9946235318 0.8293632854 3.0138800898
H -2.8538281227 2.4595496128 3.0829989504
H -3.8154346746 3.3423470643 0.9680582731
H -2.8954098684 2.5756884073 -1.2092386658
H -1.0439975248 0.9518701814 -1.2731801168
