41
CONF13
C 4.7619150289 1.4303048691 2.7032982834
C 3.4198113736 1.5340977939 2.0555385569
N 2.4051996744 0.8849791103 2.6237932606
C 1.2327050157 1.0071168062 1.9701415938
N 1.0276890812 1.7125779271 0.8599115246
C 2.1266565824 2.3050907695 0.3837668806
N 3.3426781577 2.2606793706 0.9259066664
O 1.9234778126 2.9962970026 -0.7349885590
C 3.0647534522 3.6655584444 -1.3100405784
N 0.1842663415 0.3276841024 2.5445854822
C -1.1394342248 0.1053722930 2.1179140771
O -1.8524840354 -0.6508909645 2.7481032403
N -1.5205524567 0.7994769242 0.9932554235
S -2.9558849411 0.3896232889 0.1550888294
O -2.7940214825 1.0538995429 -1.1410072721
O -4.0977112549 0.6596863426 1.0196784949
C -2.8635990093 -1.3918112939 -0.1060260564
C -3.6957990709 -2.1992505755 0.6574724553
C -3.7436873576 -3.5645400327 0.3970629289
C -2.9811296934 -4.1035700828 -0.6331360481
C -2.1561632704 -3.2856945642 -1.3981107307
C -2.0739385139 -1.9193648489 -1.1323103444
C -1.0742131727 -1.0977621121 -1.8829841033
O -0.1588294165 -0.5019614150 -1.3605906424
O -1.2818561437 -1.1680469273 -3.2069964447
C -0.3552056261 -0.3905672255 -4.0008414523
H 4.6623181727 1.1538510050 3.7530657714
H 5.3092188635 2.3684765931 2.5951715155
H 5.3416840272 0.6509627957 2.1949708546
H 3.4754777309 4.3966466795 -0.6095033471
H 2.6764492030 4.1600749782 -2.2000645730
H 3.8399823082 2.9425831672 -1.5751285805
H 0.4212572626 -0.1945452112 3.3765972775
H -0.7809259676 1.2351735350 0.4281493803
H -4.2946143379 -1.7497737285 1.4401056496
H -4.3851761831 -4.2021634900 0.9954828873
H -3.0280044360 -5.1663940773 -0.8461611722
H -1.5598565720 -3.7029442710 -2.2023605336
H -0.6779610162 -0.5238839338 -5.0326249553
H 0.6649198773 -0.7567157576 -3.8597142696
H -0.4094122800 0.6603074719 -3.7064712601
