41
CONF210
C 5.6902644951 -1.6490681624 2.3912469567
C 4.6858011536 -0.7485425433 3.0709283472
O 4.3727758979 0.3218134647 2.1377749823
C 3.4814393814 1.2448751399 2.5888443668
O 2.9492850684 1.2002919980 3.6893758733
N 3.3051129558 2.2186584410 1.6604396834
C 2.2776666653 3.2373697835 1.7849163395
C 1.0488018248 2.9426111214 0.9437990915
O 0.4531876826 1.7433098129 1.4557432549
C -0.6518168252 1.2563237735 0.8214186437
C -1.2629078827 1.8646306501 -0.2786536539
C -2.3933311708 1.2778333483 -0.8471653882
C -2.9028307938 0.1022360634 -0.3191849098
C -2.3009950179 -0.5076229909 0.7771340850
C -1.1765834560 0.0697878469 1.3476352182
O -4.0686922614 -0.4471078161 -0.8511897686
C -3.9485704449 -1.3164342180 -1.9140594158
C -5.1480972088 -1.7939772836 -2.4453958971
C -5.1171928457 -2.6811889490 -3.5140542112
C -3.9007207783 -3.0957648929 -4.0579904436
C -2.7131914139 -2.6111393508 -3.5179394124
C -2.7242248785 -1.7204689923 -2.4449417650
H 5.2761126236 -2.0750780400 1.4729667470
H 5.9508463846 -2.4702013666 3.0653040811
H 6.6043027828 -1.1008606616 2.1459117867
H 5.0898211924 -0.3099832101 3.9890430440
H 3.7626659200 -1.2828913995 3.3173429910
H 3.7507453010 2.0926462311 0.7636807128
H 2.6817094320 4.2055659848 1.4677312028
H 2.0003559266 3.3130841192 2.8393623089
H 0.3426577644 3.7811605400 1.0177609174
H 1.3263885170 2.8027540157 -0.1104243211
H -0.8814918481 2.7873165678 -0.6979128506
H -2.8783212503 1.7382995115 -1.7020933142
H -2.7154354620 -1.4277302615 1.1765452066
H -0.6915806635 -0.3854905196 2.2049174340
H -6.0872432167 -1.4638876862 -2.0133488616
H -6.0519169191 -3.0504344919 -3.9248916536
H -3.8811716140 -3.7882664854 -4.8928068842
H -1.7593449017 -2.9256231848 -3.9305274660
H -1.7942790949 -1.3488058228 -2.0300845649
