141
CONF1304
C 5.8603921783 0.6972783701 4.6626787151
C 4.6050844221 -0.0804065992 4.2698440667
C 4.2279328967 0.1349068989 2.8113371265
O 3.0194528681 -0.6563659148 2.5424056415
C 1.8877455928 0.0053824725 2.2441097206
O 1.7980486426 1.2214090322 2.1993562357
C 0.7328734800 -0.9366542381 2.0216292692
C -0.3961375569 -0.3260289389 1.1707182711
O -0.9805622045 0.7615310610 1.8962403889
C 0.0292649197 0.0546951614 -0.2719546571
C 0.8330592203 -1.1049615015 -0.8801974929
C -1.1821473749 0.3596350793 -1.1837704015
O -2.0453267283 1.3846321201 -0.6287565329
C -3.2220379428 0.9223148253 -0.0405031427
O -4.0663479293 0.4191764696 -1.0844334014
C -5.3004048062 -0.1392561633 -0.5967299184
C -5.0772497771 -1.4350306614 0.1813101544
C -6.0847448509 0.9487799863 0.1672524134
O -7.2311495693 0.3331630241 0.7788343385
C -8.4865755314 0.9120154384 0.4329705932
C -9.5309822158 0.3759906070 1.3980954412
C -9.8266112524 -1.1098399435 1.1882874359
C -10.9963682706 -1.5593209063 2.0508129686
O -8.6976967960 -1.9261652350 1.5834035212
C -10.1093481605 -1.3613520412 -0.3084833524
O -10.2329391262 -2.7606894492 -0.5649261063
C -9.0169453285 -0.7644307651 -1.2053741641
C -9.3552123524 -0.8557755935 -2.6782899697
O -8.8328057871 0.6416317957 -0.9147067088
C -5.2237998733 1.6120481860 1.2545880635
C -3.8975278709 2.1046185707 0.6468028689
O -4.1344031317 3.1528439169 -0.2971914386
N -5.9884143215 2.5652987929 2.0640482794
C -6.3667778737 3.8269053700 1.4219778480
C -5.3531128152 2.8296508213 3.3534076402
C -0.8295302188 0.8421796626 -2.6092342704
C -2.1022941825 0.8794230377 -3.4581376983
C -2.7391984817 -0.4398572988 -3.7512572416
O -2.2281475556 -1.5280497291 -3.5577747823
C -0.1361597095 2.2240620234 -2.6121583442
C 0.9890750265 2.3914420535 -3.6710914741
C 0.5183706781 2.2309619086 -5.1116699385
C 2.1181141170 1.4319895751 -3.3306762385
O 2.3187980696 0.4124006863 -3.9932382191
C 2.9039093909 1.7570760442 -2.1334117097
C 3.6281360906 0.8074673309 -1.5024538600
C 4.3393894752 0.9688666611 -0.2542837240
C 4.5595942458 2.3533333476 0.2837457647
C 4.7064789912 -0.1640145031 0.3875286920
C 5.2888881618 -0.2694802885 1.7655992031
C 5.8319101094 -1.6800610953 2.0138003901
O 6.7631070220 -2.1011392182 1.0042302609
C 8.0907199833 -1.6828187605 1.2049365969
O 8.3221048782 -0.3281899524 0.8378043319
C 8.0608073802 -0.0427996780 -0.5546718521
C 8.2429541528 1.4469898654 -0.7411326851
C 9.0067528655 -0.8795262769 -1.4084437120
O 8.7201492094 -0.6140739917 -2.7819679959
C 8.8223470744 -2.3618872942 -1.1028181935
O 9.7923998028 -3.0663678312 -1.8847947239
C 9.3129087085 -4.2879889714 -2.4577431174
C 9.0128581575 -2.6102780517 0.3885781652
O 8.7857572049 -3.9883064272 0.6403832271
C 9.1192117655 -4.3861925466 1.9724560824
H 5.7529025893 1.7603236708 4.4212218238
H 6.7498449053 0.3220696350 4.1462323306
H 6.0388972139 0.6108422701 5.7378475471
H 3.7559899449 0.2585136928 4.8751049075
H 4.7309169290 -1.1493539332 4.4740002356
H 3.9762140156 1.1853822446 2.6528851916
H 1.0940832508 -1.8878014399 1.6268579266
H 0.3154880319 -1.1499536244 3.0147124741
H -1.1793280322 -1.0931999586 1.0995383715
H -0.2648984413 1.4028169445 2.0255466913
H 0.6714285003 0.9421143352 -0.2064362372
H 1.7774800067 -1.2491946801 -0.3507284749
H 0.2609104671 -2.0391398343 -0.8249683421
H 1.0874844876 -0.9258268996 -1.9254818045
H -1.7643139106 -0.5665037822 -1.2742202416
H -3.0220703766 0.1273996940 0.6915267855
H -5.8606070571 -0.3764225465 -1.5081490374
H -4.3517746610 -2.0479096052 -0.3626759732
H -6.0094211592 -2.0013053633 0.2461536748
H -4.7061547372 -1.2765294654 1.1970614040
H -6.4180171098 1.6944052129 -0.5631121571
H -8.4192851557 2.0047213782 0.4908806682
H -9.2119915809 0.5510571525 2.4313146813
H -10.4515398599 0.9450229557 1.2293869578
H -11.1593669292 -2.6345424569 1.9397602192
H -11.9098705560 -1.0342564318 1.7576047318
H -10.7865704450 -1.3416927425 3.1023292608
H -7.8937816075 -1.4355672663 1.3472773849
H -11.0712857170 -0.9002509076 -0.5687268428
H -9.5063148745 -3.1785506444 -0.0761364963
H -8.0747934644 -1.2993737903 -1.0079487434
H -9.4852292399 -1.9005535428 -2.9688265660
H -8.5491321442 -0.4243302931 -3.2787686915
H -10.2826579529 -0.3131894753 -2.8901239007
H -4.9370822950 0.8123158224 1.9525160455
H -3.2324557952 2.4529594842 1.4511525318
H -3.3140037530 3.2578878842 -0.8001745212
H -7.1598593385 4.2958073916 2.0171389882
H -5.5303112123 4.5398926500 1.3411124520
H -6.7549339549 3.6518692929 0.4158093772
H -4.4090481702 3.3997438145 3.2689883672
H -6.0367542877 3.4164949124 3.9771198620
H -5.1407493490 1.8869655784 3.8690608843
H -0.1599206214 0.1010174075 -3.0554723495
H -2.8636391907 1.5224023451 -3.0001009645
H -1.9088656409 1.3301465368 -4.4426547382
H -3.7494289336 -0.3741190983 -4.2106041070
H 0.2926464769 2.4327500375 -1.6272854584
H -0.8811838533 3.0087237477 -2.7894908961
H 1.3835293136 3.4074556129 -3.5308301152
H 0.1701645890 1.2138129164 -5.3096092294
H -0.2966448225 2.9290822713 -5.3260824031
H 1.3393985483 2.4359712763 -5.8053664035
H 2.8084553372 2.7586929521 -1.7231648283
H 3.6219235664 -0.1941287359 -1.9301638121
H 3.6182068737 2.7843026229 0.6444473437
H 5.2741474500 2.3601215977 1.1087605304
H 4.9383036238 3.0114205981 -0.5050505841
H 4.4886810200 -1.1098785840 -0.1072759999
H 6.1111066062 0.4483147596 1.8781666692
H 6.3123032650 -1.7469884994 2.9976806172
H 5.0108562487 -2.4041992392 1.9769301390
H 8.3442031782 -1.7170219284 2.2734747583
H 7.0257301775 -0.3270476593 -0.7928656621
H 7.5662221258 1.9920464585 -0.0770881964
H 8.0160939003 1.7265248819 -1.7726795716
H 9.2737693449 1.7393389923 -0.5149370941
H 10.0462552004 -0.5955096884 -1.1711050495
H 9.2355139125 -1.2534366528 -3.2940897862
H 7.8080807529 -2.6650570023 -1.4033272102
H 10.1200748596 -4.6758107581 -3.0836942204
H 9.0651826051 -5.0225747577 -1.6835187067
H 8.4281119002 -4.1049395639 -3.0825492096
H 10.0483773277 -2.3453822599 0.6622876260
H 8.3993061019 -3.9981387476 2.7054788710
H 10.1286278987 -4.0460940464 2.2435541303
H 9.0887415083 -5.4777452394 1.9914422172
