39
CONF238
C 6.8558481274 3.2678649855 2.5513229943
C 6.5461843449 2.5506456971 1.2395662746
C 5.8976482116 1.1825508167 1.4534238315
C 5.5593643075 0.4838059247 0.1380226973
C 5.0743267679 -0.9687044235 0.2632026310
C 4.7295160918 -1.5425492814 -1.1194571895
C 4.5129415397 -3.0536554032 -1.1451668536
C 3.9302158492 -1.1178523153 1.2597820272
O 2.8375373649 -0.2152638601 0.9157919704
C 1.7374001357 -0.7555808658 0.3553731629
O 1.5534595577 -1.9322500325 0.1599372455
C 0.7854730937 0.3311678809 -0.0449824520
C 1.3269379710 1.4586724171 -0.6552678051
C 0.5107785069 2.4601694902 -1.1532454872
C -0.8785127356 2.3650216998 -1.0332847505
C -1.4340516472 1.2440460164 -0.3903394502
C -0.6026705373 0.2261269855 0.0994553168
Br -1.3443507915 -1.2470296719 1.0311560833
Br -3.3108524262 1.1192354277 -0.1829100372
Br -1.9825727666 3.7342338776 -1.7214774413
Br 1.3573543731 3.9428223328 -1.9844938945
H 7.5401654286 2.6767923506 3.1695262421
H 7.3211723075 4.2422017567 2.3752870619
H 5.9425244186 3.4331924363 3.1326802774
H 5.8788985616 3.1714958935 0.6272167325
H 7.4689896883 2.4264901260 0.6581098601
H 6.5739853287 0.5489491095 2.0457226679
H 4.9887621468 1.3159488938 2.0542932117
H 6.4487487291 0.4839576745 -0.5058039507
H 4.8006575936 1.0702584664 -0.3978392850
H 5.8973060909 -1.5682579600 0.6846882503
H 5.5467572063 -1.2808119202 -1.8031114358
H 3.8384410332 -1.0314703368 -1.5096056883
H 3.6324360361 -3.3467701734 -0.5674858741
H 4.3576653802 -3.4029651663 -2.1700923064
H 5.3851605232 -3.5804831690 -0.7423026345
H 4.2370708461 -0.8133229876 2.2629682140
H 3.5486073221 -2.1404033604 1.2941508497
H 2.4013241738 1.5435147144 -0.7502920703
