46
CONF91
C 4.8892109439 3.4019344970 3.5906315584
C 3.7965743353 3.0436831202 2.6127021124
O 3.9880654991 1.6377998958 2.2677731999
C 3.1325663868 1.0749485074 1.4155519557
N 3.3937504372 -0.2095381441 1.1626218267
C 2.5331593917 -0.7856925581 0.3072583634
N 1.4715613979 -0.1539094012 -0.2655774153
C 1.3429879827 1.1212396193 0.0736322963
N 2.1376373552 1.8098280121 0.9110471659
N 0.3037610930 1.8652730916 -0.4580413324
C -0.7210009932 1.5134383146 -1.3346429264
O -1.5700800448 2.3305447269 -1.6573823469
N -0.6844928902 0.2146943650 -1.7887298740
S -1.9492034740 -0.4672795209 -2.6921477505
O -2.0774606966 0.2712005611 -3.9498901945
O -1.6265019244 -1.9011031940 -2.7074642924
C -3.4609539716 -0.2236797915 -1.7484966611
C -4.3274676780 0.7745747648 -2.1817572601
C -5.5628348043 0.9216172517 -1.5608724005
C -5.9336372724 0.0572313406 -0.5357413640
C -5.0695711281 -0.9508673059 -0.1220366068
C -3.8130423469 -1.0955926738 -0.7109244965
C -2.9453177343 -2.1955998912 -0.1850064298
O -3.3002610742 -3.3528933289 -0.1251627439
O -1.7822719687 -1.7258938525 0.2827215085
C -0.8765996459 -2.7276886119 0.8174729477
N 2.7124609998 -2.0720585122 -0.0170879666
C 3.8000047097 -2.8892656062 0.5012206745
H 4.7828274212 4.4530500804 3.8736851380
H 4.8203757853 2.7918170299 4.4954713521
H 5.8768838790 3.2630836417 3.1424085016
H 2.8003004677 3.1640559737 3.0482689319
H 3.8550658296 3.6387502263 1.6964501471
H 0.2635738848 2.8287751990 -0.1516037445
H -0.0001426364 -0.4235499955 -1.3511009691
H -4.0377541703 1.4200291212 -3.0014946397
H -6.2376507540 1.7038160880 -1.8909229603
H -6.9020215055 0.1614868437 -0.0581054951
H -5.3577694814 -1.6324155914 0.6713949613
H -0.5672434976 -3.4060958725 0.0183374191
H -1.3680044642 -3.2878884560 1.6156269269
H -0.0264991083 -2.1675740455 1.2028045252
H 2.0666057151 -2.4712711511 -0.6799550886
H 3.7502820296 -2.9638899082 1.5921662026
H 3.7060867883 -3.8873428125 0.0717151764
H 4.7740406305 -2.4717824544 0.2261247690
