45
CONF44
C -4.7321177904 -0.8347728055 1.0828508611
C -3.9566406217 -1.0307906200 -0.1797739893
C -3.3433596078 -0.0526827880 -0.8557190350
C -2.6084420411 -0.2889537694 -2.1070032698
C -1.2308792931 0.3724837555 -2.3951816443
C -2.4760351792 0.7302157136 -3.2021084469
C -3.1199603549 2.0909084608 -3.0710072164
C -2.4731631985 0.2027629396 -4.6220291987
C -0.6213148154 1.2712395447 -1.4077597257
O -1.1761814359 2.0944532504 -0.7068935754
O 0.7288637288 1.0418478700 -1.3647362508
C 1.4933126041 1.7727064536 -0.3720661051
C 2.2394508273 0.7788671539 0.4646857662
C 3.6215489236 0.6350361037 0.4088005761
C 4.2827856500 -0.3038856160 1.1873943062
C 3.6020666907 -1.1582146067 2.0477148660
C 2.2194769096 -1.0163342042 2.0976749434
C 1.5574669423 -0.0724181620 1.3279242763
F 0.2184916991 0.0210641015 1.4182803146
F 1.4924656872 -1.8014234098 2.9142823515
C 4.3557639182 -2.1382261865 2.9165461013
O 5.0102812585 -1.4891805308 4.0039980033
C 4.0920515597 -0.9971693062 4.9828302812
F 5.6215112910 -0.3887749013 1.0938264361
F 4.3463912709 1.4161532371 -0.4117126378
H -5.7719194130 -1.1624992426 0.9615102618
H -4.7339562358 0.2146622063 1.3911194650
H -4.3106139327 -1.4349943775 1.8985962835
H -3.8991297840 -2.0511313950 -0.5623489264
H -3.3896178166 0.9638891586 -0.4749850194
H -2.6288684699 -1.3245985721 -2.4407568177
H -0.5179957270 -0.2727368405 -2.8965399131
H -3.1058966793 2.4736980731 -2.0520063872
H -4.1604536305 2.0285409277 -3.4086193375
H -2.6005853184 2.8107340826 -3.7131312412
H -3.5016395101 0.1195160299 -4.9907665547
H -2.0052520706 -0.7839197535 -4.6825059936
H -1.9284853386 0.8859394009 -5.2831734153
H 2.1816837423 2.4325468629 -0.9016503944
H 0.8136112158 2.3675339828 0.2427794496
H 5.1441291529 -2.6137663523 2.3282868056
H 3.6691432716 -2.9122008351 3.2824269293
H 4.6919866759 -0.5745471979 5.7910500416
H 3.4439293824 -0.2110643344 4.5702438346
H 3.4660966562 -1.8105138094 5.3763200467
