32
CONF46
C 3.3114341444 1.2922149332 -3.0349864881
C 2.3982030333 1.0210024960 -1.8721504936
C 1.9588780800 2.0663515787 -1.0536578062
C 1.0934265354 1.8318988708 0.0050171162
C 0.6634909326 0.5335447239 0.2689627830
C 1.0857994247 -0.5200715482 -0.5340809841
C 1.9475147718 -0.2716241684 -1.5957835752
N -0.2225869855 0.2574177759 1.3717567602
S 0.3308605730 0.6153119029 2.9483535166
C 0.4502286167 -1.0699430181 3.6625278485
F -0.7516893160 -1.6655574952 3.7964424774
Cl 1.1566423944 -0.7968647254 5.2924425631
Cl 1.4847493002 -2.1884538863 2.6969146114
S -1.9229239704 0.5651767632 1.0597629001
O -2.0707762190 1.8353000544 0.3484654088
O -2.6106208640 0.3196558232 2.3266446242
N -2.1698746449 -0.6705789326 -0.0673471998
C -3.2104504004 -0.3801586899 -1.0659797489
C -2.2941135569 -1.9978033166 0.5506132247
H 2.7402788457 1.6469636325 -3.9009509478
H 3.8484097512 0.3903865142 -3.3391170854
H 4.0455623646 2.0647469293 -2.7899028671
H 2.2965106379 3.0795030778 -1.2525480629
H 0.7443552398 2.6500404496 0.6265196385
H 0.7420015470 -1.5247654198 -0.3173097833
H 2.2812745542 -1.0983835381 -2.2162875289
H -3.1199559159 -1.1337006351 -1.8540328195
H -4.2255838939 -0.4264665899 -0.6449108494
H -3.0407006898 0.6050580859 -1.5005426124
H -2.2298435376 -2.7414404153 -0.2497094625
H -1.4674802506 -2.1655805606 1.2449828765
H -3.2430202160 -2.1231802749 1.0898917702
