48
CONF18
C 1.3957933896 -3.2792509509 2.4725411009
C 1.1017075150 -1.8111965637 2.7642582875
C 1.2594774981 -0.9279689049 1.5256357750
C 1.1589095648 0.5626814377 1.8778636168
O 1.3474506900 0.9946700373 2.9894853997
O 0.9563013176 1.3109118243 0.7807910727
C 0.8879690947 2.7495104475 0.9899800106
C -0.4961895432 3.1721685547 1.4479108627
C -1.5956800837 2.8779737705 0.4158714340
C -1.4516384220 3.6697414589 -0.8458250796
C -1.3335490389 3.1474088785 -2.0644391435
N 0.3648002658 -1.3367473060 0.4326197341
C 0.9939662794 -1.6786161208 -0.8649503169
C 1.7285701881 -0.5378211537 -1.4615269842
C 3.0444466907 -0.1911254681 -1.5236350517
C 3.0997289951 1.0811096879 -2.1694595667
C 1.8144209153 1.4167470874 -2.4555657994
O 0.9639572438 0.4374183622 -2.0381860986
C -0.9563914607 -1.0502932773 0.6078390054
O -1.3919358557 -0.3775266971 1.5260811417
N -1.8531712262 -1.6339831809 -0.3432821025
C -3.0076251634 -1.0207664415 -0.8001217898
C -3.6486255239 -1.9637666962 -1.5519927311
N -2.9485795480 -3.1546100178 -1.5476530854
C -1.8849744089 -2.9314212060 -0.8198578620
H 2.4184920408 -3.4175026575 2.1024475919
H 1.2883821652 -3.8806370361 3.3792022574
H 0.7071591101 -3.6872310774 1.7253372480
H 0.0903041665 -1.6860138663 3.1622509569
H 1.7843490204 -1.4252480375 3.5260744906
H 2.2800578018 -1.0505088646 1.1358023374
H 1.1298420678 3.1681087168 0.0092342765
H 1.6502574912 3.0350644983 1.7201692232
H -0.7296390697 2.6693132328 2.3915694194
H -0.4586718706 4.2498377447 1.6572244009
H -2.5645662627 3.1110512107 0.8778194285
H -1.6001675752 1.8075078592 0.1908768568
H -1.4499363928 4.7555850270 -0.7324011494
H -1.2517335212 3.7752065472 -2.9467993929
H -1.3296367538 2.0702041003 -2.2150132060
H 1.6895162062 -2.5107641957 -0.7091262736
H 0.2191362770 -2.0132744376 -1.5559488990
H 3.8753437502 -0.7736956706 -1.1537920301
H 3.9791874654 1.6646033420 -2.3942635264
H 1.3521065651 2.2679411128 -2.9292485024
H -3.2380966390 0.0000558525 -0.5409176902
H -4.5755289650 -1.8577024821 -2.0966036599
H -1.1251341863 -3.6560290611 -0.5582828895
