18
CONF49
C -2.0193935320 -1.1850197688 0.8130081694
C -0.8718134947 -0.2348397478 0.4990267512
C 0.1487294945 -0.8776465464 -0.4332071050
C 1.3133662893 0.0304893443 -0.7809194033
O 0.7395804705 1.1174380145 -1.5541786578
N 1.6939950933 2.1147365945 -1.9396029896
O 2.8426718664 1.9361517899 -1.6171324310
O 1.1935950910 3.0151909375 -2.5546598887
O -0.1494349647 0.1198808282 1.6897883038
H -1.6390253258 -2.0955174381 1.2868784140
H -2.7371810293 -0.7166762219 1.4945508542
H -2.5581493822 -1.4601964252 -0.0996619282
H -1.2663727756 0.6748640557 0.0208121044
H -0.3510023959 -1.2096214321 -1.3497416745
H 0.5627870819 -1.7664613305 0.0594246093
H 1.7856527402 0.4308594560 0.1199621698
H 2.0606936521 -0.4902569509 -1.3887198986
H -0.7486989741 0.5966246297 2.2736817881
