42
CONF5
C -1.8367615073 -1.9382940377 1.3191792168
C -0.8423785465 -1.3933358280 2.1258097342
C -0.1429275686 -0.2670699314 1.7061030708
C -0.4303597656 0.3304419108 0.4775443319
C -1.4407059222 -0.2147555214 -0.3195566953
C -2.1376653730 -1.3426216801 0.0974484550
C 0.3631148305 1.5379037823 0.0024768524
C -0.4201672115 2.8272558969 0.0858571749
C -0.1925237815 3.6889521504 1.1593023774
C -0.9248502214 4.8606165110 1.3164539523
C -1.8978288937 5.1699547008 0.3762384121
C -2.1432709966 4.3356515606 -0.7075795296
C -1.4025993507 3.1685113868 -0.8462697967
Cl -2.8308295227 6.6454180001 0.5551733316
C 0.9582729127 1.2452747031 -1.3796174729
O 0.8275509388 1.9626150239 -2.3394404500
C 1.7448878511 -0.0676603876 -1.5134770709
C 0.8834568989 -1.2137405003 -2.1030533724
O 0.1961272265 -1.1531900149 -3.0938391542
C 1.0935102115 -2.4021128722 -1.2403571912
C 0.5587890584 -3.6760753353 -1.3904554425
C 0.9138165855 -4.6406759111 -0.4538761635
C 1.7801456091 -4.3358568703 0.6054503420
C 2.3092019350 -3.0588536877 0.7540659504
C 1.9526714565 -2.0977225445 -0.1845163363
C 2.3578334338 -0.6744846299 -0.2477939014
O 3.0654626157 -0.0919042613 0.5480397180
H -2.3757638194 -2.8232141652 1.6415897963
H -0.6032728326 -1.8506138252 3.0806687865
H 0.6498889606 0.1423054789 2.3257507530
H -1.6703104804 0.2296399922 -1.2830290952
H -2.9105076147 -1.7620173349 -0.5385635821
H 1.2357551767 1.6238295078 0.6633546492
H 0.5713059347 3.4438513669 1.8921049680
H -0.7407155010 5.5241520498 2.1531200526
H -2.8994013845 4.5999643815 -1.4374463439
H -1.5842318673 2.5352525648 -1.7057258477
H 2.5438540676 0.1437123882 -2.2352731807
H -0.1107706547 -3.8966958779 -2.2150279199
H 0.5171273730 -5.6471526860 -0.5405208025
H 2.0380859690 -5.1123589997 1.3185102992
H 2.9769832730 -2.8068444599 1.5711770239
