47
CONF5
C -4.5829145985 2.5844280100 -2.2577091308
O -4.1967303003 1.1849125873 -2.1508358166
P -5.1181472444 0.1612126744 -1.3393426319
S -5.7571946511 0.7210395744 0.4074343952
O -6.2161245660 -0.2148558736 -2.4395171686
C -7.3454146319 -1.0589472094 -2.0810867554
O -4.1925046521 -1.1688872329 -1.3681793428
C -3.2499396314 -1.4258388158 -0.3643498557
C -3.5184998067 -2.4417139144 0.5427376741
C -2.5709355317 -2.7564339737 1.5078703229
C -1.3667258325 -2.0453726756 1.5691177254
C -1.1153258584 -1.0230963798 0.6521975385
C -2.0591169186 -0.7156705317 -0.3236199952
S -0.2328718440 -2.5033188754 2.8759283198
C 1.2505705015 -1.6009169337 2.4479657335
C 1.5862934176 -0.4488514641 3.1600722077
C 2.7526854853 0.2439679063 2.8516945121
C 3.5645560025 -0.2275932394 1.8303762126
C 3.2513620077 -1.3783811503 1.1153654905
C 2.0883692130 -2.0690195184 1.4325750268
O 4.7467666030 0.4655225750 1.5714042870
P 5.0005101587 1.2312359391 0.1613439195
S 3.4488424441 2.0976145699 -0.6195925421
O 5.7088817849 0.0733914123 -0.6813543348
C 6.0004702352 0.2761842202 -2.0939853024
O 6.2490497451 2.1514312069 0.5451419497
C 6.0409740070 3.4112529142 1.2436726934
H -3.7849206616 3.0644325176 -2.8232636838
H -4.6632228926 3.0268562050 -1.2616713036
H -5.5317380499 2.6725991884 -2.7935650093
H -7.9402048053 -1.1531672943 -2.9891200502
H -6.9921330153 -2.0420926597 -1.7577818918
H -7.9304233907 -0.5843256780 -1.2893607164
H -4.4574507913 -2.9818928905 0.4864959582
H -2.7715909224 -3.5560398239 2.2145521438
H -0.1876745415 -0.4630458860 0.6878394049
H -1.8680289064 0.0717458664 -1.0447451740
H 0.9332089110 -0.0867578703 3.9466123461
H 3.0290492724 1.1455483197 3.3873490033
H 3.9117213640 -1.7316996632 0.3310364070
H 1.8294208028 -2.9709114270 0.8880476126
H 5.0753984636 0.4747079648 -2.6407553633
H 6.7038770327 1.1038633859 -2.2170174770
H 6.4512887239 -0.6553088745 -2.4345076437
H 7.0329715554 3.8449914196 1.3650114694
H 5.4067506846 4.0699502432 0.6453680107
H 5.5868145647 3.2272513458 2.2211968373
