30
CONF50
O 4.8766545261 0.7613143415 1.5601796285
S 5.1026319990 -0.3498620302 0.4099706601
O 6.1760718583 0.0475574930 -0.4935474396
O 5.0811360456 -1.6362447628 1.0872717292
C 3.4794603530 -0.2106473895 -0.6161490907
F 3.6447553960 0.7867269639 -1.4939363792
F 3.3707309150 -1.3801912520 -1.2732589025
C 2.2026623064 0.0407034569 0.2488537409
F 2.2726929138 -0.7230681000 1.3599421289
F 2.1782724566 1.3451608574 0.6005304838
C 0.8724846796 -0.3060839517 -0.5135993036
F 0.7196021951 -1.6485236515 -0.5168247621
F 0.9782406448 0.1317734645 -1.7880788734
C -0.3965288605 0.3507277666 0.1396320137
F -0.2877405802 0.2639718762 1.4839209051
F -0.4392826866 1.6525840677 -0.2203482155
C -1.7372383290 -0.3402543543 -0.2985718574
F -1.8715948552 -1.4949003917 0.3910352392
F -1.6739822671 -0.6162668867 -1.6201433225
C -3.0012781521 0.5530920803 -0.0360471194
F -2.8657733318 1.1633082873 1.1631893190
F -3.0753335177 1.4941784948 -1.0035444483
C -4.3391860599 -0.2639775951 -0.0248909576
F -4.3160126839 -1.1799779006 -1.0204406014
F -4.4529669726 -0.8990456881 1.1603063754
C -5.6181667143 0.6168011644 -0.2198312965
F -6.6980268825 -0.1186062512 0.0743337663
F -5.5813310060 1.6790427951 0.5971829865
F -5.7190306499 1.0383322874 -1.4843468231
H 5.1324037771 1.6486230622 1.2367301450
