21
CONF104
C 0.6757710541 -1.3647040614 0.0447591326
C -0.0523500813 -0.0079401879 0.0053842158
C 0.8940812729 1.1057299186 -0.4477072101
O 1.2870449045 0.8740382508 -1.8062754477
C -1.2275352924 -0.1643119278 -0.9616990936
O -1.8410700668 1.1141116399 -1.1765537009
C -0.5572547222 0.3741185361 1.4100869363
O -1.2324611974 -0.6965270694 2.0773875607
O 1.5128764502 -1.5288197833 1.1987412145
H 1.2531231845 -1.4987517773 -0.8786561991
H -0.0601686074 -2.1735515138 0.1030784713
H 0.3883525952 2.0767419464 -0.3517035000
H 1.7777849589 1.1229499482 0.2096698782
H 1.9079283241 1.5698444543 -2.0520808694
H -0.8705781473 -0.5834317905 -1.9133135686
H -1.9490893543 -0.8683046920 -0.5224491133
H -2.6097813924 0.9756397363 -1.7420752224
H 0.2840101282 0.7325320132 2.0195723820
H -1.2819333835 1.1888466833 1.3209792057
H -0.5527163023 -1.3338718665 2.3346410505
H 2.2539659764 -0.9143381556 1.1282138724
