45
CONF14
C -2.9962375109 -2.6866285968 1.6802325807
C -2.4392540510 -1.2975105202 1.6517987105
N -3.1207549782 -0.2545808001 1.3273147354
O -4.4295693325 -0.5828286671 0.9698174814
C -5.1440128587 0.6231550460 0.6564558366
C -1.0345274314 -1.0293917704 2.0215395102
C -0.2596717186 -0.0965354199 1.3070846942
C 1.0179160178 0.2176281938 1.7835304693
C 1.5432522549 -0.3916249041 2.9126211532
C 0.7807486261 -1.3337046168 3.5947493609
C -0.4963639980 -1.6517629596 3.1534799600
O 1.7965667912 1.2065865843 1.1939321088
C 2.2064702991 1.0636297980 -0.0986186100
N 2.0384392433 -0.1137697341 -0.6793237062
C 2.4460371790 -0.1782793483 -1.9545644940
C 3.0286539576 0.8955001511 -2.6171667250
C 3.1665052717 2.0587684501 -1.8626441442
N 2.7529890118 2.1656424682 -0.5944557915
O 3.7386675380 3.1126440746 -2.4591971298
C 3.8749649688 4.3284956213 -1.6872595657
O 2.2951924765 -1.3230682094 -2.6328002183
C 1.6889264302 -2.4381100175 -1.9357909728
C -0.7472803053 0.5361735179 0.0451580017
O -0.7452475652 1.7323835613 -0.1662004628
O -1.1216818663 -0.3875817749 -0.8530403796
C -1.5986625543 0.1350034842 -2.1162116140
H -3.8274068841 -2.7571465375 2.3899308758
H -2.2309401756 -3.4168285928 1.9420310129
H -3.4003646007 -2.9337730300 0.6925972027
H -4.6649023444 1.1509373062 -0.1752522612
H -6.1452936145 0.2990062366 0.3666623511
H -5.2013208477 1.2784164296 1.5320395602
H 2.5436416566 -0.1272557523 3.2370575660
H 1.1841905128 -1.8137021858 4.4800003808
H -1.0986266790 -2.3623338727 3.7093220507
H 3.3567278176 0.8324139807 -3.6457469908
H 4.4958538401 4.1555574355 -0.8049420403
H 2.8938890559 4.7010025818 -1.3827279211
H 4.3586343758 5.0343050792 -2.3618528082
H 0.6884145650 -2.1725231694 -1.5867178844
H 2.3094148809 -2.7419947852 -1.0888321467
H 1.6397190034 -3.2356763420 -2.6764899796
H -2.4803446127 0.7606306812 -1.9538574156
H -1.8509764695 -0.7405149077 -2.7129855573
H -0.8123763602 0.7201062564 -2.6006766780
