65
CONF142
C 7.9812685087 1.5267122730 -2.4652658491
O 7.3683865094 0.4405059221 -3.1690177231
C 6.3671316595 -0.2360171446 -2.5314009475
C 5.7945478616 -1.2934233710 -3.2471258230
C 4.7719742856 -2.0410297408 -2.6815043344
C 4.2950792749 -1.7664884070 -1.3942355198
C 4.8774460715 -0.7080554653 -0.6974422425
C 5.9049141400 0.0596038830 -1.2467772622
C 3.1406347235 -2.5357664213 -0.8075906762
C 1.8265409810 -1.7952868829 -1.0846528935
N 0.6217666317 -2.5117436933 -0.6522652556
C -0.5615437873 -1.7866369003 -1.1441800495
C -1.8545842248 -2.4947714276 -0.7653915175
C -1.9711044706 -2.6671109722 0.7545409086
C -0.7006958765 -3.3424203731 1.2714125588
C 0.5675457246 -2.6237394865 0.8112045549
N -2.1522741839 -1.3869342017 1.4605545818
C -3.2823825294 -0.6510734266 1.2758182812
N -4.4242080525 -1.0917108489 0.7695562256
C -5.2837528107 -0.0056981897 0.8458185737
C -6.6156816603 0.1077756080 0.4515591341
C -7.2540009092 1.3352691131 0.6324393751
C -6.5845460749 2.4306249851 1.1927842681
C -5.2493977621 2.3369792443 1.5945477120
C -4.6245342965 1.1118284649 1.4129424889
N -3.3374092388 0.6710362182 1.6870007847
C -2.2505618963 1.4268587183 2.2902714488
C -1.0807503116 1.6310867207 1.3499903713
C -1.2917062224 1.9839049839 0.0145713460
C -0.2183283868 2.1768997600 -0.8482506034
C 1.0632527243 2.0079175510 -0.3490411343
C 1.3147519978 1.6623489193 0.9663101184
C 0.2255961568 1.4717971863 1.8139568747
F 2.1154379011 2.1702373242 -1.1914861649
H 7.2492113446 2.3093745576 -2.2323329125
H 8.7409192610 1.9252667130 -3.1384105747
H 8.4559528510 1.1790444383 -1.5398091015
H 6.1649932438 -1.5158948479 -4.2429672513
H 4.3352932275 -2.8584032291 -3.2498902341
H 4.5258498084 -0.4717046699 0.3042508989
H 6.3310868786 0.8695011971 -0.6673713118
H 3.0872816721 -3.5384241146 -1.2467921828
H 3.2943776319 -2.6508264434 0.2701736193
H 1.7467908648 -1.6340592330 -2.1675003779
H 1.8798797689 -0.7913321092 -0.6154909652
H -0.4885561533 -1.7095225188 -2.2351399698
H -0.5760866922 -0.7486691193 -0.7514434614
H -2.7107461179 -1.9300452054 -1.1470700567
H -1.8772687477 -3.4892554265 -1.2274452321
H -2.8418740361 -3.2877038893 0.9890075974
H -0.7150970311 -3.3971671344 2.3653455614
H -0.6840500267 -4.3676821782 0.8857620632
H 0.6434184347 -1.6190684906 1.2829096208
H 1.4338629336 -3.1923659745 1.1620239519
H -1.3079112626 -0.8434344513 1.5809430502
H -7.1366568227 -0.7391860350 0.0155972959
H -8.2914872239 1.4449139306 0.3320842380
H -4.7359979087 3.1902839844 2.0261931612
H -2.6614499562 2.3937731832 2.5971561119
H -1.9123315883 0.9199917573 3.2025950848
H -2.3046125571 2.0989177504 -0.3607167882
H -0.3666078078 2.4423036361 -1.8893332267
H 2.3344703117 1.5299202984 1.3111667533
H 0.4004802590 1.1866978028 2.8477058302
H -7.1095480338 3.3721363792 1.3182366416
