52
CONF34
C -2.4868743468 4.2893990772 0.4107072092
C -1.8331470623 3.1978970317 1.2604470456
C -1.2800748476 3.7835249542 2.5600814619
C -0.6950484052 2.5174853408 0.4689317697
C 0.0047554670 1.3940356661 1.2191193672
C 1.3922587622 1.4174130148 1.3728377928
C 2.0590446294 0.3993253386 2.0487342807
C 1.3175583054 -0.6576120887 2.5605478343
C -0.0631898392 -0.7159565185 2.4153162065
C -0.7116278037 0.3144032928 1.7443026112
Cl 2.1433320728 -1.9575660193 3.4129472487
C -1.1289009716 1.9265313977 -0.8582726289
O -0.4948332666 1.9799494150 -1.8865432350
O -2.3008563936 1.2423141381 -0.7346639879
C -2.6099023082 0.3314590807 -1.8341259068
C -4.0650304735 0.2256886458 -1.8673790410
N -5.2141398554 0.1255554670 -1.9130261655
C -1.9245709845 -0.9887870555 -1.5729758480
C -0.7259472408 -1.2615860722 -2.2307722233
C -0.0154927595 -2.4034672067 -1.8853764311
C -0.4803695553 -3.2766308939 -0.9055499691
C -1.6847412069 -2.9981947674 -0.2678544928
C -2.4096808164 -1.8567321905 -0.5950023925
O 1.1384506344 -2.6812459758 -2.5959701312
C 2.3206147922 -2.8298453177 -1.8898793681
C 2.5571406522 -2.1712016178 -0.6848317723
C 3.7973206797 -2.3210515507 -0.0691855386
C 4.7880032098 -3.1128330391 -0.6454242270
C 4.5338481436 -3.7595500781 -1.8540058552
C 3.2996589119 -3.6239994851 -2.4812966670
H -1.7491883179 5.0539833650 0.1403865584
H -3.2899008351 4.7777754243 0.9707962210
H -2.9181952269 3.8881612031 -0.5124215105
H -2.5860219733 2.4399360295 1.5063770252
H -2.0788929557 4.2769426940 3.1219027891
H -0.5057133150 4.5293914313 2.3445748182
H -0.8412464327 3.0100746677 3.1974358150
H 0.0537822654 3.2760491067 0.2174561503
H 1.9651618061 2.2458528111 0.9670378657
H 3.1357588023 0.4305378519 2.1719284220
H -0.6250695303 -1.5510861789 2.8180233955
H -1.7890367464 0.2661704431 1.6318482102
H -2.2698822142 0.7717564516 -2.7778379372
H -0.3341329443 -0.5916038929 -2.9880662614
H 0.0940034810 -4.1625941625 -0.6548533441
H -2.0598347832 -3.6782908501 0.4896990785
H -3.3418300014 -1.6371553983 -0.0833478404
H 1.7901665599 -1.5457787111 -0.2391445856
H 3.9878822972 -1.8071909981 0.8677159561
H 5.7507792966 -3.2233095397 -0.1578110388
H 5.2982685567 -4.3793190864 -2.3122532470
H 3.0855842994 -4.1217621278 -3.4212839098
