44
CONF37
C -4.6571757769 0.3994787575 0.3689590205
C -3.2023662619 0.2702348723 0.7738736501
C -2.8254863491 -1.1114272260 1.3158410607
O -2.3902353526 -1.8087665042 0.1359525362
C -1.6762963776 -0.8389272225 -0.6067486014
O -2.3618172391 0.3866080795 -0.4086121866
C -1.7292329847 -1.1915336143 -2.1015211756
N -3.0911779863 -1.3043500667 -2.5879941534
C -3.9403030326 -2.3437116036 -2.4606203498
N -5.1198773566 -2.0415385874 -2.9903235072
C -4.9294795114 -0.7663332872 -3.4340075777
N -3.7176681201 -0.2748421443 -3.2123596799
C -0.2197956725 -0.7201666597 -0.1390744359
C 0.3045321237 0.5446077284 0.1441182747
C 1.6119570143 0.7351310735 0.5680052784
C 2.4375363583 -0.3758319401 0.7099893963
C 1.9616924225 -1.6536477401 0.4361099366
C 0.6466843426 -1.8085048290 0.0174734481
Cl 0.1396455087 -3.4642390319 -0.3170492607
O 3.7276116559 -0.2985872592 1.1843394120
C 4.4796328160 0.8315292095 0.9030478776
C 5.2102297936 1.3854332692 1.9471066524
C 6.0463622556 2.4699962286 1.7002228400
C 6.1243961844 2.9801126975 0.4102933620
C 5.3969962895 2.4287820526 -0.6391513613
C 4.5698252036 1.3397816143 -0.3900331761
Cl 7.1743904570 4.3579159049 0.0933699449
H -4.8228774243 1.3390122876 -0.1655224805
H -5.2928624574 0.3906193353 1.2601119025
H -4.9473390283 -0.4326554960 -0.2813857912
H -2.9138065189 1.0643910240 1.4714947685
H -2.0075435011 -1.0547372144 2.0462313895
H -3.6701573904 -1.6581165607 1.7383196758
H -1.2276581803 -0.4013981059 -2.6638434160
H -1.2119174373 -2.1368113802 -2.2773089677
H -3.6566762675 -3.2776987172 -1.9945084374
H -5.6948694609 -0.1878819742 -3.9360498754
H -0.3489650484 1.4021933543 0.0378679246
H 1.9772176546 1.7312146984 0.7903470222
H 2.6165086595 -2.5093227875 0.5510242885
H 5.1260566170 0.9683482328 2.9447324942
H 6.6218798666 2.9117131015 2.5055644346
H 5.4790085780 2.8339255787 -1.6412231780
H 4.0034199453 0.8900010424 -1.1985814124
