52
CONF49
C -2.9479358734 -3.5773920659 0.0379624846
C -2.2983335101 -2.6732707073 1.0501187504
C -2.4808495582 -1.2865954521 0.9547345991
C -1.8778730028 -0.4354051238 1.8800377721
C -1.1034762558 -0.9592096145 2.9228788377
C -0.9279415880 -2.3312757558 3.0140264240
C -1.5156582573 -3.1898135083 2.0821566401
O -1.9752587494 0.9260149363 1.8476785544
C -2.6226010529 1.5375284478 0.7239443417
C -2.3288391800 3.0363799876 0.7910794129
C -0.8374520519 3.3543125536 0.6990931386
N -0.3509550616 3.0495769698 -0.6533433609
C 1.0292301328 3.4817240194 -0.8970825854
C 2.1041089828 2.7055189879 -0.1000497881
C 2.0541381506 1.2311677556 -0.4008185269
C 2.6604940216 0.7346871282 -1.5665987177
C 2.5640036438 -0.6080582818 -1.9110292570
C 1.8335549973 -1.4942223549 -1.0826440989
C 1.2294720926 -1.0049014790 0.0678659211
C 1.3414537050 0.3493623260 0.4038505175
O 1.7896328684 -2.7931495140 -1.4996473004
C 1.0532272155 -3.7086392084 -0.6798691231
O 3.1310357347 -1.1721437454 -3.0153735572
C 3.8725910250 -0.3070341198 -3.8843537763
O -3.0470509940 3.6821382801 -0.2643165412
H -4.0392090726 -3.4890870165 0.0789609697
H -2.6416154415 -3.3094873305 -0.9791882081
H -2.6811086843 -4.6221563155 0.2139760095
H -3.0932382213 -0.8928221478 0.1509604085
H -0.6418613974 -0.2802853633 3.6327073045
H -0.3195460090 -2.7388510490 3.8160386275
H -1.3634996707 -4.2623574189 2.1578883083
H -2.2444780584 1.1113199854 -0.2154895102
H -3.7068072450 1.3700089668 0.7681150562
H -2.7163186475 3.4272776554 1.7397034532
H -0.7004264385 4.4292007490 0.8714632907
H -0.3105254919 2.8191137923 1.5039222612
H -0.3831624417 2.0424018876 -0.7990613988
H 1.1037157459 4.5512000834 -0.6643143478
H 1.2381795392 3.3632597965 -1.9680847528
H 1.9634014707 2.8731330766 0.9730294390
H 3.0846108781 3.1158760524 -0.3692496302
H 3.2144938821 1.4186604898 -2.2001149626
H 0.6620580885 -1.6640488102 0.7150754798
H 0.8608138851 0.7057007737 1.3104898245
H 1.4838141058 -3.7702353399 0.3270656609
H 0.0000334438 -3.4121944344 -0.6064404761
H 1.1309056745 -4.6775837773 -1.1741679364
H 4.7238516996 0.1425702313 -3.3596100121
H 4.2339312243 -0.9420283377 -4.6937493698
H 3.2319860836 0.4835363792 -4.2928871286
H -2.4387157385 3.6605779712 -1.0233233019
