22
CONF38
C 2.0463112250 -1.1208120492 -0.2863094178
C 0.6735265040 -0.4649415750 -0.3761887536
C 0.4675267243 0.5710396792 0.7271617713
C -0.7295517281 1.5312016262 0.5311327032
C -2.1138117091 0.8862683563 0.4645661100
O -2.3654150274 0.2852699944 -0.8113078440
O -0.5151585896 2.3460423776 -0.6248519033
O 0.3921963186 -0.0562683755 2.0094619211
O -0.3447737503 -1.4766878331 -0.2302237063
O 2.1353206096 -2.2311333981 -1.1913404731
H 2.1973715429 -1.5335626972 0.7156544018
H 2.8262200143 -0.3751885638 -0.4880819634
H 0.5721618307 0.0258625101 -1.3571304408
H 1.3616876408 1.2078418816 0.7408262968
H -0.7183338280 2.1974578551 1.4037285973
H -2.2388927496 0.1636261218 1.2828683330
H -2.8665765818 1.6717690702 0.5861115192
H -1.8300791059 -0.5299520383 -0.8345629083
H -0.9496010285 1.8837938683 -1.3586045049
H -0.1553459010 -0.8476390627 1.9024983438
H -0.0269938282 -2.2547817542 -0.7150964356
H 2.1822122109 -1.8792057874 -2.0903116411
