38
CONF90
C 3.0427658884 -0.9164583206 -3.3483979644
C 2.2465002508 -0.3482705353 -2.1744675615
C 2.5793784251 -1.0823816648 -0.8814921760
O 1.8833436166 -0.5626093585 0.2608658392
C 0.5435511545 -1.0270112759 0.3475181110
C -0.1178669595 -0.3504743318 1.5271448965
N -1.0177415124 0.5507476829 1.4656211915
C -1.3919499181 1.1387525982 0.2617686185
C -0.4668431761 1.8501349702 -0.5141035437
C -0.8591853315 2.5150445551 -1.6665327642
C -2.1917143835 2.4703454353 -2.0569428628
C -3.1338906409 1.7756784111 -1.3095492501
C -2.7379954172 1.1188323078 -0.1498147477
C -3.7487877581 0.3528074038 0.6604971570
F -3.3920145230 -0.9502715952 0.8007455896
F -3.8978287226 0.8603120442 1.9036420030
F -4.9711429650 0.3630153416 0.0811229036
Cl -2.6965116388 3.3034606881 -3.5110305022
N 0.2695250404 -0.8035107260 2.7909205272
C -0.2887344671 -0.4219342975 4.0067939212
C 0.4146396551 -1.1003868985 4.9548066906
N 1.4027106875 -1.8850418815 4.3781175210
C 1.2938955899 -1.6918227568 3.0936317377
H 2.8048563486 -1.9724271576 -3.5137740567
H 2.8203359322 -0.3763790683 -4.2721386587
H 4.1203315126 -0.8407397927 -3.1681430098
H 2.4736587154 0.7154984108 -2.0388273268
H 1.1731688798 -0.4197906456 -2.3870032329
H 2.3742055152 -2.1609746003 -0.9845725837
H 3.6431835750 -0.9655672528 -0.6476481661
H -0.0362841783 -0.7811394210 -0.5506842033
H 0.5146825441 -2.1212822082 0.4837155961
H 0.5681884103 1.8810285451 -0.1894436559
H -0.1355954221 3.0649127631 -2.2573422833
H -4.1677188932 1.7447550116 -1.6283803878
H -1.1181483677 0.2641207403 4.0470707327
H 0.2711399739 -1.0785312370 6.0254019628
H 1.9298918557 -2.1124415869 2.3284384486
