55
CONF587
C -0.5491948478 -1.6394205409 -3.9498006057
C 0.3957555402 -1.7074194173 -2.7701227324
O -0.1399715918 -0.9383058558 -1.6437114125
C 0.0977749988 0.3844572820 -1.6432098898
O 0.7858787027 0.9646251210 -2.4591718148
C -0.6601052007 1.0885341328 -0.5227409573
C -1.9520125688 1.6565536626 -1.1368016459
C -2.8945015864 2.2527091627 -0.0768311908
C -3.2173164875 1.2664615407 1.0152919705
C -4.0709184914 0.1854372372 0.7696413667
C -4.3174847592 -0.7675150322 1.7541662996
C -3.7100718536 -0.6568448083 3.0043031017
C -2.8613125027 0.4169421376 3.2625398987
C -2.6194068865 1.3697240407 2.2747451651
N 0.1116935729 2.1409434834 0.1338919640
C 1.0045280590 1.6816281461 1.2033360302
C 1.5931613139 2.8855619794 1.9349944131
C 2.1559012076 0.8202905351 0.6761802064
O 3.0287810182 1.3421775427 -0.0574421818
N 2.2054260895 -0.4840807748 0.9895384694
C 1.2363958024 -1.2418829316 1.8217433911
C 1.7349364830 -2.6795938967 1.7024151641
C 3.2523022746 -2.5097653302 1.6050401657
C 3.4066415700 -1.3045833586 0.6837775615
C 3.4723351256 -1.6817521813 -0.8088930612
O 3.5434487973 -0.6464373039 -1.6442606977
O 3.4970260191 -2.8251166458 -1.2143445311
H -0.1611157529 -2.2656508091 -4.7592029783
H -1.5418426621 -2.0072159501 -3.6747004371
H -0.6384312625 -0.6149602955 -4.3215619828
H 0.4843295815 -2.7224993956 -2.3780290545
H -0.9434050392 0.3459396121 0.2301249294
H -1.6893306777 2.4240517344 -1.8746660155
H -2.4650262250 0.8481170254 -1.6727597139
H -2.4330895806 3.1429505621 0.3589214675
H -3.8147873836 2.5686934224 -0.5816177935
H -4.5457063272 0.0914704982 -0.2040669478
H -4.9860813902 -1.5978041237 1.5467452144
H -3.9011453251 -1.4002239363 3.7720603718
H -2.3869234633 0.5146108037 4.2346220414
H -1.9529604200 2.2041019786 2.4780077099
H 0.6394740499 2.6664611069 -0.5602555646
H 2.2602828086 2.5610054127 2.7392209406
H 2.1650595332 3.5096465051 1.2426434292
H 0.7813282354 3.4783902244 2.3641654158
H 0.2181029568 -1.1180436382 1.4471730032
H 1.2839785902 -0.8915257142 2.8599897996
H 1.4226375444 -3.2878666414 2.5534813279
H 1.3479701191 -3.1355598770 0.7847810409
H 3.6720064787 -2.2670774576 2.5864423067
H 3.7636604080 -3.3860900727 1.2058947395
H 4.3037138523 -0.7100391393 0.9003752700
H 1.3883590659 -1.3229694895 -3.0128137241
H 0.3948766382 1.1051431887 1.9056375570
H 3.4626465517 0.2110234355 -1.1172862903
