52
CONF39
C -2.8713358780 3.8807718835 1.5413305260
C -1.5508318725 3.1433058970 1.7740024238
C -0.5025290268 4.0888052623 2.3604609662
C -1.0410133822 2.5401207011 0.4490476247
C 0.2931252308 1.8188879460 0.5607095277
C 0.4609710278 0.7586927385 1.4555003648
C 1.6809242897 0.1005026640 1.5615448470
C 2.7331704675 0.5032070325 0.7475203382
C 2.5924829097 1.5424166662 -0.1626968842
C 1.3659034546 2.1953705602 -0.2477295346
Cl 4.2828554853 -0.3189670005 0.8794301545
C -2.0120845189 1.5241068174 -0.1131183162
O -2.6690528084 0.7306908200 0.5177261493
O -2.0072158540 1.5636931100 -1.4781644868
C -2.6838418284 0.4706809638 -2.1460267223
C -4.1178521327 0.4835508009 -1.8438639039
N -5.2610943964 0.5189876438 -1.6871146066
C -2.0113002157 -0.8652660734 -1.8842395080
C -0.6186987631 -0.8900141164 -1.8452472408
C 0.0352366057 -2.0991547380 -1.6385759194
C -0.6791374379 -3.2884663704 -1.4991375869
C -2.0673948194 -3.2447772086 -1.5450925557
C -2.7421452094 -2.0399455797 -1.7293462270
O 1.4128511995 -2.0550837551 -1.6645179367
C 2.1453790514 -2.9127370308 -0.8584809295
C 3.3402024319 -3.3905664712 -1.3860320767
C 4.1658208558 -4.1800296246 -0.5908824932
C 3.7962720202 -4.4949103965 0.7150141769
C 2.5934630030 -4.0102190696 1.2258861248
C 1.7609031284 -3.2136709775 0.4456525303
H -3.6428370367 3.2206080666 1.1324803451
H -2.7238373025 4.7121803724 0.8419751188
H -3.2470448659 4.2940181322 2.4822106519
H -1.7248887301 2.3194889464 2.4772810750
H -0.8766471113 4.5388685249 3.2849763434
H -0.2810953110 4.8986084501 1.6549951823
H 0.4325415088 3.5685595812 2.5874067431
H -0.9296524118 3.3445046627 -0.2860429876
H -0.3656795733 0.4381372132 2.0816853734
H 1.8103358205 -0.7149966614 2.2634932549
H 3.4233073369 1.8421960092 -0.7912620826
H 1.2485760826 3.0118539778 -0.9541823132
H -2.5858611791 0.7293434435 -3.2073247982
H -0.0321259832 0.0146822273 -1.9647637740
H -0.1584764574 -4.2286844039 -1.3563046925
H -2.6326320884 -4.1642979677 -1.4335102881
H -3.8266673918 -2.0231517244 -1.7476945640
H 3.6137196966 -3.1334459295 -2.4040073426
H 5.1005898277 -4.5521083928 -0.9984186774
H 4.4412819408 -5.1120927790 1.3315329631
H 2.3013276413 -4.2430973534 2.2451980896
H 0.8317327981 -2.8238949839 0.8467171411
