39
CONF7
C 3.9635204243 0.7819130408 -2.4563440844
C 2.9843412251 0.0003315779 -1.5841509338
C 3.3467793619 0.0664669735 -0.1016899742
C 2.3635086731 -0.6864768220 0.7957573879
N 1.0260085063 -0.1030068300 0.7704001577
C 0.0023484548 -0.6784920255 0.1034939829
O 0.0394183570 -1.7097190980 -0.5327336861
N -1.2023197062 0.1229843347 0.1750935787
C -1.3305080520 1.4579624278 -0.2307156375
C -0.3987246356 2.4468262910 -0.5188472260
C -0.9010383797 3.6813708547 -0.9247785140
C -2.2780203158 3.9118208746 -1.0370834055
C -3.2033990384 2.9121084743 -0.7609300936
C -2.7216877486 1.6689880220 -0.3587886162
N -3.4221037071 0.5182985529 -0.0327189772
C -2.4986328247 -0.3605330721 0.2559296353
N -2.7898644843 -1.6647376782 0.6085363337
C -2.1185833164 -2.3856514056 1.5743411119
O -1.1525232772 -2.0046426911 2.1973772153
O -2.7180591980 -3.5896617281 1.7186419340
C -2.0984267059 -4.4390776955 2.7057439066
H 3.9805331278 1.8410023484 -2.1762719147
H 3.6898475772 0.7211019679 -3.5135426505
H 4.9827075751 0.3944691409 -2.3508249252
H 2.9523130968 -1.0498825437 -1.8990154252
H 1.9693776761 0.3894761134 -1.7320103374
H 4.3458463611 -0.3623169592 0.0539150302
H 3.4075047624 1.1155713700 0.2214441780
H 2.7146670412 -0.6926444170 1.8337991589
H 2.2666232864 -1.7260740407 0.4681556754
H 0.8099840685 0.6551955386 1.3980505634
H 0.6692716868 2.2731347744 -0.4521637417
H -0.2057974678 4.4794841910 -1.1623530044
H -2.6265113132 4.8895201362 -1.3528057714
H -4.2704993934 3.0793892631 -0.8568922872
H -3.7037017676 -1.9897856381 0.3303269189
H -1.0611539146 -4.6440798953 2.4299415816
H -2.6866385714 -5.3562842841 2.7038336572
H -2.1264056555 -3.9643509467 3.6898795744
