27
CONF58
C -2.9699008248 1.2273238181 -0.0014681005
C -4.4636623395 1.4739924488 -0.2562060777
O -5.0021612440 0.6459729091 -1.2776694352
C -2.7144574893 -0.0043854862 0.8343449320
C -1.2209881464 -0.2960735160 1.1921709284
C -0.2440033118 -0.3790924829 -0.0266918221
C 1.1195943156 -1.0776627343 0.3053223331
C 2.2425974734 -0.7729318197 -0.7439997250
C 3.4522935347 -1.7624549761 -0.6868984499
F 3.9024986388 -1.8776045650 0.5701996092
F 4.4368661495 -1.2810332190 -1.4576059096
F 3.1065989595 -2.9704812929 -1.1429296587
F 2.7214427243 0.4702515511 -0.5257526565
F 1.7238613425 -0.8366084272 -1.9926521874
F 1.5483031647 -0.6553007807 1.5158932858
F 0.9198260975 -2.4140331305 0.3482142591
F -0.8414226991 -1.0603535230 -1.0304286612
F 0.0118589016 0.8849906316 -0.4541501266
F -0.7932017049 0.7003551580 2.0075702680
F -1.1655184583 -1.4679739693 1.8696000138
F -3.2260632332 -1.1298954370 0.2364222652
F -3.3491423818 0.1080145147 2.0441523131
H -2.4574712316 1.1305708986 -0.9626907293
H -2.5350449867 2.0780780020 0.5348220015
H -5.0299362931 1.3856947946 0.6815929287
H -4.5785113672 2.5002202985 -0.6162957266
H -5.0081547677 -0.2640136755 -0.9616165175
