42
CONF140
C 3.7794385445 2.6257118921 -0.6175568465
C 3.2365560890 1.3230484974 -0.0268605901
C 4.1236055395 0.8157689335 1.1093074952
C 1.8071013919 1.5617496390 0.4450681631
O 1.2031770820 0.3586908362 0.9904773791
C 0.6876254483 -0.5009756148 0.0833895536
O 0.6667001904 -0.3019478918 -1.1116764764
C 0.1881343615 -1.7458291063 0.7311050910
C 0.8384038800 -2.2642346590 1.8525761682
C 0.4783069580 -3.5056009328 2.3638917734
C -0.5303391418 -4.2435967409 1.7526329769
C -1.1884103612 -3.7319877082 0.6397095511
C -0.8467992535 -2.4811373387 0.1331786569
C -1.6411819567 -1.9594479491 -1.0198347903
O -1.8890681102 -2.5966631942 -2.0170342208
O -2.1038595289 -0.7224405982 -0.7611344233
C -2.7566695142 -0.0546170805 -1.8719430449
C -3.1625831683 1.3342461240 -1.4057458730
C -1.9456520719 2.1671357490 -0.9956767035
C -4.1998148691 1.2703192944 -0.2825863626
H 4.8019416358 2.4867406658 -0.9803353472
H 3.8000811517 3.4183824143 0.1399193350
H 3.1680307616 2.9718850009 -1.4569821270
H 3.1999408861 0.5669014078 -0.8208249847
H 3.7352793099 -0.1130429443 1.5368097033
H 5.1390166221 0.6227505911 0.7499407523
H 4.1870080485 1.5585687998 1.9137196006
H 1.1813200709 1.9302564339 -0.3733789373
H 1.7868694652 2.2745900906 1.2759032730
H 1.6419093923 -1.6957135079 2.3061832971
H 0.9946059992 -3.9013548951 3.2322486356
H -0.8074753979 -5.2171034559 2.1435496419
H -1.9819898146 -4.2915733072 0.1559853125
H -3.6226594374 -0.6494787901 -2.1832140669
H -2.0446874101 -0.0112849853 -2.7039883021
H -3.6278062568 1.8069463882 -2.2829605457
H -2.2406530766 3.1965329349 -0.7694705243
H -1.1932363792 2.1882460371 -1.7904869825
H -1.4770864565 1.7440283610 -0.1012833647
H -5.0833042057 0.6999376567 -0.5877405183
H -4.5262276253 2.2756416948 0.0007122851
H -3.7755483795 0.7899520675 0.6044062920
