48
CONF33
C -2.8335161910 1.7610938156 -1.2230927256
C -3.8303283301 0.6333317982 -0.9212326526
C -3.9543176901 -0.2783573630 -2.1505990117
C -5.2002256274 1.2584540936 -0.6160282409
C -3.3950113911 -0.1717774061 0.3278349834
C -1.9213583665 -0.6564151480 0.2589794912
N -1.7042987722 -1.8451744076 1.0753057351
C -1.2836782277 -3.0715157590 0.6998117488
N -1.2764378916 -3.8911887576 1.7412646857
C -1.7212400997 -3.0930596027 2.7539814547
N -1.9985834694 -1.8453165344 2.4006569792
O -1.1323810172 0.4094903247 0.7510935375
C 0.2264890984 0.4157431181 0.5297751452
C 0.9063396244 -0.4471251152 -0.3282085195
C 2.2843098233 -0.3124353527 -0.4769769332
C 3.0087318483 0.6654932355 0.2120682485
C 2.2982283934 1.5213896015 1.0679105516
C 0.9279409960 1.3996044028 1.2294062086
C 4.4707845883 0.7928490923 0.0453879764
C 5.0866394911 2.0529932239 0.0405575337
C 6.4633932248 2.1726494761 -0.1178742997
C 7.2543834176 1.0364426230 -0.2767818048
C 6.6549290210 -0.2215710986 -0.2741291421
C 5.2786232520 -0.3426981478 -0.1133830309
O -4.2771792435 -1.2818451666 0.4584366965
H -3.2293002638 2.3748962096 -2.0388455259
H -1.8581343886 1.3774922532 -1.5391815150
H -2.6819796893 2.4047626786 -0.3508170038
H -2.9992176458 -0.7432035609 -2.4183476710
H -4.6896370624 -1.0700597542 -1.9879532636
H -4.2781014657 0.3190871353 -3.0091637333
H -5.5486738337 1.8298889682 -1.4825295575
H -5.9442208116 0.4904260515 -0.3885732876
H -5.1330790925 1.9419633372 0.2378424779
H -3.4644853149 0.4833217621 1.2086890448
H -1.6509541794 -0.9362572368 -0.7645122043
H -1.0026921296 -3.3097153126 -0.3180822097
H -1.8422384388 -3.4354570294 3.7740563031
H 0.3957036397 -1.2123712009 -0.8989255040
H 2.7972097402 -0.9757410085 -1.1663770272
H 2.8292494495 2.2774618423 1.6376891145
H 0.3847695832 2.0544927006 1.9028850960
H 4.4789103198 2.9474065315 0.1384099451
H 6.9190073117 3.1581817269 -0.1268662663
H 8.3285367917 1.1305649903 -0.4011159584
H 7.2627652013 -1.1141160543 -0.3874831195
H 4.8268862982 -1.3296863405 -0.0872157911
H -4.2325585067 -1.5922963468 1.3722526712
