47
CONF168
C -7.4077484203 1.0437724447 0.6023753568
O -6.7999490688 0.2791061932 1.6916820218
P -5.8166482494 -0.9345907194 1.3769554446
S -5.1489715504 -1.7799516499 2.9890257423
O -6.6720891031 -1.8039199715 0.3465213325
C -6.1167222255 -3.0322442475 -0.2047920393
O -4.6727960359 -0.3581189611 0.3658622140
C -3.5126840258 0.2511027933 0.8508036187
C -3.5671241075 1.5222532950 1.4055910657
C -2.3855162233 2.1284971723 1.8213285841
C -1.1692593097 1.4532011801 1.6965016092
C -1.1350471251 0.1690479096 1.1453303002
C -2.3101162279 -0.4304303534 0.7112924082
S 0.2966966343 2.2480045663 2.3432501845
C 1.5624224102 1.7655339240 1.1755690401
C 1.3582500877 1.8644308427 -0.2041292765
C 2.3795274924 1.5268652167 -1.0816907955
C 3.6061699821 1.1207819529 -0.5687919300
C 3.8363477918 1.0415736858 0.7968301015
C 2.8005075509 1.3552902922 1.6727391747
O 4.6417069294 0.8425827797 -1.4687725643
P 5.0082974435 -0.6823478658 -1.8804912845
S 3.5462417509 -1.8252895327 -2.4420627619
O 5.8205980689 -1.1309431395 -0.5716301047
C 6.2824755846 -2.5063808523 -0.4438665782
O 6.0730975700 -0.4462205382 -3.0437152355
C 7.2805914487 0.3401071299 -2.7918013575
H -6.6391222426 1.3766678492 -0.0997069266
H -7.8785714549 1.9023898387 1.0794523563
H -8.1544473577 0.4302527809 0.0948472319
H -5.8970287759 -3.7358666540 0.6023434461
H -6.8892210548 -3.4354651201 -0.8584203693
H -5.2130754872 -2.8102364179 -0.7782283886
H -4.5147290186 2.0430830598 1.4937105793
H -2.4139014907 3.1307127728 2.2364781012
H -0.1952335142 -0.3650343018 1.0548408336
H -2.3021293618 -1.4261942437 0.2808780072
H 0.4022454700 2.1978223496 -0.5939612247
H 2.2374672553 1.5904827450 -2.1549996683
H 4.8041023080 0.7275078699 1.1705862928
H 2.9598118184 1.2768634988 2.7431205155
H 6.9587428146 -2.7555086890 -1.2663536403
H 6.8143133403 -2.5484380372 0.5061215387
H 5.4273236860 -3.1866663017 -0.4329226902
H 7.8711498268 0.2624287859 -3.7037823495
H 7.0120136167 1.3812959377 -2.6004642781
H 7.8320294332 -0.0778110847 -1.9464076363
