39
CONF39
C -0.3524861623 -5.0388947848 2.9302469669
C -0.5298779358 -4.0450721506 1.8224386749
C -1.6220814696 -3.1715189925 1.7785142086
C -1.7932773559 -2.2262775360 0.7525679776
C -0.8573349879 -2.2330741042 -0.2933171952
C 0.2239908408 -3.0988478884 -0.2924415906
C 0.3861134487 -3.9757719612 0.7710814729
Cl -1.0687338861 -1.1536130068 -1.6581158601
N -2.8999062442 -1.3400011283 0.7734948342
S -2.7374984468 0.1254748296 1.6427398152
O -4.0374185409 0.7864327999 1.5354539220
O -2.1203451742 -0.1959197942 2.9279413587
C -1.5473611327 1.0998128802 0.7151102654
N -0.2498459638 0.9195215444 0.9454633733
N 0.2787699625 1.7211109695 -0.0135394818
C 1.6080402687 1.9385660744 -0.2789574190
C 1.8882814861 2.7971950244 -1.3118883032
C 0.8063858678 3.3871292519 -2.0156471086
N -0.4757007982 3.1759087006 -1.7630587695
C -0.7285287146 2.3350837490 -0.7592509472
N -1.9122725669 1.9279346984 -0.2823314834
O 1.1653648608 4.2112676734 -3.0028371389
C 0.1063922270 4.8474687470 -3.7593571437
O 2.4357739374 1.2785991316 0.5063512935
C 3.8557351537 1.4627698670 0.2681372291
Cl -2.8480019002 -3.3101363359 3.0169569901
H -0.3170905903 -4.5405103512 3.9042566251
H -1.1889919117 -5.7449349627 2.9603780843
H 0.5725350028 -5.6002399831 2.7883991716
H 0.9337874942 -3.0829442195 -1.1109651392
H 1.2411729373 -4.6440956752 0.7779828721
H -3.2978849844 -1.1458770887 -0.1447803063
H 2.9038162676 3.0297907246 -1.5981089276
H -0.5099784715 4.0940777324 -4.2554343145
H 0.6215620820 5.4667620463 -4.4923360873
H -0.5128872984 5.4614757858 -3.1014757968
H 4.1226316541 2.5137882280 0.4075797766
H 4.1094102593 1.1260107088 -0.7406075975
H 4.3477415740 0.8415494892 1.0136166955
