43
CONF137
C 5.5659702777 -1.7478842675 -0.5210645040
O 4.9064532991 -0.5971198338 -1.0664898113
C 3.7657415478 -0.1612336488 -0.4584135438
C 3.1766051055 0.9607990452 -1.0449244632
C 2.0112653584 1.4262822909 -0.4539826328
C 1.4291299856 0.8182273898 0.6866688892
C 2.0389442761 -0.2972313877 1.2570511314
C 3.2047389530 -0.7831252882 0.6792109680
N 0.2736996368 1.4981166792 1.0555762543
C 0.1672016654 2.4502673490 0.1622328811
N 1.1755936425 2.4786175363 -0.7632810538
S -1.1613613992 3.6712919876 0.1219327537
O -0.6182995103 4.8306548560 -0.7110271085
C -2.3069499822 2.7072311508 -1.0307757465
C -2.6822489448 1.4026599088 -0.4094169005
N -3.5110844157 1.4989088712 0.6424949068
C -3.8456691191 0.3798979117 1.2890632190
C -3.3713374301 -0.8869357877 0.9562889794
C -3.7746329105 -2.1116153916 1.7183722193
C -2.5025538371 -0.9595441602 -0.1369607608
O -2.0346646574 -2.1960096380 -0.5119924025
C -0.6769322783 -2.4497808439 -0.0855311597
C -2.1498537940 0.1838676324 -0.8641092077
C -1.2695880601 0.0806653827 -2.0764571294
H 6.4372794087 -1.9127243388 -1.1553874773
H 5.8914644453 -1.5649037595 0.5094860594
H 4.9148050799 -2.6289073662 -0.5550385493
H 3.6201685598 1.4258794176 -1.9180506727
H 1.6115210158 -0.7815206587 2.1288750792
H 3.6813706573 -1.6518421018 1.1150831370
H 1.2666163690 3.1445665480 -1.5178093269
H -3.1672716396 3.3753900361 -1.1292591178
H -1.7656800113 2.6323423676 -1.9751364391
H -4.5272638631 0.4904182510 2.1321124671
H -4.4386292396 -1.8470314982 2.5443578948
H -2.9006307821 -2.6301781752 2.1251257120
H -4.2933484485 -2.8226707175 1.0671254635
H -0.4235722592 -3.4470013524 -0.4483003386
H 0.0145163837 -1.7127292951 -0.5089950756
H -0.6115951386 -2.4214352229 1.0084729401
H -1.6553338303 0.6921424503 -2.8961620403
H -0.2480727219 0.4166114050 -1.8648704548
H -1.2165127010 -0.9534131354 -2.4203677463
