57
CONF74
C -5.2589236000 -1.0694686646 -0.8141926737
Si -3.4827143810 -0.6433589319 -0.4059555362
C -2.4808534659 -2.2011313297 -0.1374432750
C -3.4047993896 0.4423867914 1.1185621768
O -2.8548654596 0.1579216628 -1.7194995660
Si -2.0836808243 1.5386007448 -2.1727492492
C -2.0716933079 1.5680877215 -4.0354075673
C -2.9058006944 3.0442615178 -1.4456171133
O -0.5262823800 1.5302306500 -1.6179174777
Si 0.6752286364 0.4290244264 -1.3540230139
C 2.3008549559 1.3108038187 -1.5814517041
C 0.4926909070 -1.0270503535 -2.5007307808
O 0.5358733050 -0.1294984525 0.1931843589
Si 0.9904435801 0.3523423803 1.7068840768
C 0.5183459037 2.1335969840 1.9871475233
C 0.1765977382 -0.8174324037 2.9075716108
O 2.6299147416 0.2651374582 1.8447060359
Si 3.8083257807 -0.9074775386 1.7708338611
C 5.3786590484 -0.0637832428 1.2044785665
C 3.2993119742 -2.2441867371 0.5601356558
C 4.0326070316 -1.6334130218 3.4830218626
H -5.7245576314 -1.6243006452 0.0082693420
H -5.8487159090 -0.1622518150 -0.9875209813
H -5.3157093235 -1.6901454640 -1.7155173702
H -2.4816350146 -2.8312030536 -1.0340658868
H -1.4421326583 -1.9549019751 0.1085527609
H -2.8992202256 -2.7870830724 0.6892097577
H -3.7387886218 -0.1184145820 1.9993263197
H -4.0434536884 1.3262515602 1.0170890230
H -2.3793330640 0.7798160025 1.3053160318
H -1.5968893669 0.6643277502 -4.4330982044
H -1.5176592178 2.4365298385 -4.4076630031
H -3.0915360980 1.6189073164 -4.4322222329
H -2.8080473640 3.0567910639 -0.3551033897
H -2.4426917425 3.9567195527 -1.8376094633
H -3.9719813229 3.0699464763 -1.6955451397
H 3.1391435973 0.6325570289 -1.3888513350
H 2.3898877394 2.1614478984 -0.8967453545
H 2.3944068244 1.6872702351 -2.6060862455
H 0.5843754986 -0.7099896672 -3.5453401475
H 1.2697540042 -1.7736961034 -2.3031880979
H -0.4828736254 -1.5079521321 -2.3734671317
H 1.0213182018 2.7851419433 1.2636629298
H 0.8063583429 2.4580239062 2.9931522335
H -0.5616924362 2.2792960382 1.8793854903
H -0.9148211749 -0.7409609231 2.8510070539
H 0.4818092363 -0.5961611897 3.9360282215
H 0.4543371886 -1.8539741633 2.6846037174
H 5.2506575279 0.3735557471 0.2080223808
H 6.2078448445 -0.7787123523 1.1574545069
H 5.6622967256 0.7381241249 1.8952807141
H 3.1748112710 -1.8353165851 -0.4485206897
H 4.0614734021 -3.0308235903 0.5165475309
H 2.3515268462 -2.7072482694 0.8573505640
H 4.2924928413 -0.8535244198 4.2076939870
H 3.1145113318 -2.1241269385 3.8254333391
H 4.8354944586 -2.3795132328 3.4863066099
