37
CONF34
C -4.8625559085 -1.2797070910 -0.9288721857
C -4.0793950786 -0.3260710156 -0.0552136106
O -2.8103584176 -0.0926889667 -0.6909973790
C -2.0210799900 0.8463235717 -0.0440307709
C -0.7064062174 1.0768010482 -0.8399235100
C 0.2062041678 0.1074855858 -0.1231762283
C 1.4525512229 -0.3921047649 -0.4525855603
C 2.0792241908 -1.2394287665 0.4634055497
C 1.4896692983 -1.5802027986 1.6761691219
C 0.2344206822 -1.0704972667 2.0078424120
C -0.3812878167 -0.2349335894 1.0910597641
O -1.6069294212 0.3492772241 1.2658780283
O 3.3061489552 -1.8057150543 0.0870380670
S 4.6889729095 -1.2520921390 0.8498017213
O 4.4469466838 -1.1517967592 2.2872989092
O 5.7416295512 -2.0933907580 0.2994159126
C 4.8220958742 0.4158178740 0.1743706308
C -0.8453618589 0.8084719787 -2.3358621828
C -0.2213359032 2.5148223569 -0.5868989232
H -5.0203728420 -0.8536944163 -1.9234733148
H -5.8380234962 -1.4844219112 -0.4781902271
H -4.3259737151 -2.2260176095 -1.0373051892
H -4.6067754946 0.6346633915 0.0578695373
H -3.9159370818 -0.7464329598 0.9449418566
H -2.5839763430 1.7694475130 0.1601809115
H 1.9370441033 -0.1624598751 -1.3966736050
H 2.0143562874 -2.2450048815 2.3510952683
H -0.2478024119 -1.3290405829 2.9433701816
H 4.9379400787 0.3391661465 -0.9078843980
H 3.9229691350 0.9720618745 0.4482099083
H 5.7059329379 0.8659239324 0.6317454883
H -1.5971025321 1.4679374142 -2.7800336358
H 0.1101191320 1.0042032165 -2.8333409484
H -1.1361990318 -0.2252068365 -2.5273685203
H -0.9014644762 3.2379563553 -1.0503239977
H -0.1625537051 2.7255682473 0.4854965589
H 0.7746668439 2.6549807091 -1.0173085581
