32
CONF14
C -3.6880371303 -0.6827600904 0.1620388588
C -3.6950062788 0.6629659615 -0.0696904183
C -2.4957981776 1.3973158071 -0.2159351389
C -1.2640014527 0.7021142148 -0.1073106017
C -1.2569100399 -0.7059046324 0.1510645842
C -2.4815344636 -1.4100698978 0.2786537349
N -2.5629773477 -2.7601306407 0.4692317591
C 0.0080268518 -1.4152193105 0.3169213759
O 0.0142719141 -2.6511853971 0.5735053499
C 1.2655009791 -0.6869156647 0.1793605325
C 2.4973314560 -1.3777358733 0.3113425745
C 3.6955266139 -0.6577609475 0.1004031499
C 3.6885305724 0.6748168341 -0.1972410131
C 2.4826532091 1.4046912810 -0.3071482266
C 1.2580066365 0.7108458268 -0.1298565770
C -0.0068904489 1.4233923688 -0.2794027906
O -0.0137233507 2.6541385973 -0.5601108208
N 2.5649363763 2.7457862496 -0.5458645613
N 2.5936785931 -2.6936401903 0.6635097933
N -2.5890035890 2.7437487013 -0.4159988693
H -4.6295650782 -1.2174774312 0.2564217246
H -4.6418194311 1.1913149656 -0.1452756758
H -1.6933891590 -3.2263972584 0.7001325548
H -3.4398353756 -3.1343760577 0.7877944240
H 4.6421538409 -1.1841244625 0.1907926683
H 4.6296610613 1.1990232415 -0.3414029074
H 1.6929779229 3.2155108897 -0.7584501875
H 3.4400788884 3.1132217538 -0.8757321974
H 1.7258472606 -3.2170170579 0.6558556034
H 3.4692793439 -3.1587683521 0.4982039805
H -1.7293326835 3.2197712916 -0.6610908437
H -3.4806375087 3.1208252588 -0.6847220349
