63
CONF39
C 2.6842893715 0.2991883028 2.4101187278
C 1.4920122908 -0.5787654769 2.7759943681
N 0.7104076670 -0.9319706011 1.5853623103
C 1.5422601952 -1.7042022896 0.6559011152
C 2.7392341922 -0.8809604412 0.1872686908
C 3.5621100980 -0.4301983560 1.3933246023
N 4.7351462438 0.3522139665 1.0058687410
C 4.7803171921 1.5825119044 0.3548424858
C 3.7908215567 2.4354421830 -0.1193664741
C 4.1959735902 3.6215769338 -0.7389372954
C 5.5457671516 3.9469967807 -0.8816013146
C 6.5449269708 3.0932392711 -0.4076059965
C 6.1424155597 1.9188018827 0.2060031255
N 6.8711430640 0.8871799386 0.7680631017
C 6.0311194412 -0.0914631624 1.2677864327
O 6.3580123963 -1.1355600420 1.8268306869
C -0.4938758845 -1.6724649087 1.9835216679
C -1.4586990225 -1.9602961789 0.8343633183
C -1.8141396702 -0.7201707118 0.0190053777
C -2.8939467230 -1.0067571815 -1.0372986410
C -4.2234406563 -1.3591989680 -0.3887892929
C -4.9497213366 -0.3894876408 0.3099744209
C -6.1561055734 -0.6990178169 0.9288121412
C -6.6265642529 -1.9988561969 0.8323061247
C -5.9456992919 -2.9894623588 0.1491236941
C -4.7371861566 -2.6549331359 -0.4609531319
F -7.8070681429 -2.3099423823 1.4325923244
C -3.0808922857 0.1156167578 -2.0458356519
C -2.7250689821 1.4398135750 -1.7819910914
C -2.9434719956 2.4471665462 -2.7219770995
C -3.5237923972 2.1042001669 -3.9286545395
C -3.8926364169 0.8044767638 -4.2354196429
C -3.6661400546 -0.1817815343 -3.2821636343
F -3.7355653418 3.0779582288 -4.8547165294
H 3.2679050811 0.5261991976 3.3090258360
H 2.3209594795 1.2457339453 1.9960695950
H 0.8400763352 -0.0432494120 3.4754414370
H 1.8545697656 -1.4896233529 3.2970768175
H 1.8978367317 -2.6428504711 1.1305562747
H 0.9438079541 -1.9878834744 -0.2152684564
H 2.3770025713 -0.0146114316 -0.3768881016
H 3.3625913404 -1.4822987867 -0.4835679199
H 3.9745184799 -1.3236690942 1.8782700191
H 2.7377148572 2.2041489167 -0.0209744086
H 3.4383374276 4.3005846955 -1.1161320931
H 5.8267508996 4.8753556093 -1.3677640786
H 7.5967838928 3.3364624373 -0.5139290032
H 7.8750598794 0.8231611507 0.8228064274
H -1.0149564679 -1.0590223127 2.7304453189
H -0.2275368204 -2.6276580156 2.4800281316
H -1.0555131182 -2.7344671076 0.1692502216
H -2.3676610494 -2.3872777084 1.2763194482
H -2.1523000880 0.0742344290 0.6975749557
H -0.9177769238 -0.3413046849 -0.4853706003
H -2.5710648812 -1.8901971714 -1.6038462067
H -4.5727996441 0.6277536471 0.3685423464
H -6.7257514020 0.0477932014 1.4714088093
H -6.3502502169 -3.9945416395 0.0970826285
H -4.1856663759 -3.4206561627 -0.9992200231
H -2.2665799806 1.7061602229 -0.8359243457
H -2.6662160420 3.4768374040 -2.5231022202
H -4.3406361536 0.5762016132 -5.1965710003
H -3.9511449355 -1.2071719844 -3.5030920320
