57
CONF164
C -4.6400096756 -1.3025800138 -2.4976413129
C -3.2680162960 -1.9523259223 -2.3411290625
C -2.7667096987 -1.8365063201 -0.9018331544
N -2.6923333519 -0.4202479009 -0.5038945874
C -4.0442830328 0.1628938710 -0.5470307159
C -4.5917582620 0.1302986440 -1.9730671593
C -1.9196438728 -0.1272961655 0.7403484999
C -1.6664117354 1.3921903689 0.8125235629
C -0.6658297444 1.8013694327 1.8901607283
N 0.6087358726 1.1255051109 1.6781806607
C 0.4166402455 -0.3214754930 1.7398922437
C -0.5433540628 -0.8070482907 0.6618942404
C 1.6718609074 1.5878656792 2.5689178068
C 3.0297987990 1.4078911476 1.8993023749
C 3.1820516318 2.3334168960 0.6776458112
C 1.9962069060 2.3924128307 -0.2722690668
O 1.3233677123 3.4200252734 -0.3441015749
C 1.7475696617 1.2699562007 -1.2259614107
C 0.6981697389 1.3950046497 -2.1458491520
C 0.3893353819 0.3695202452 -3.0269830392
C 1.1552991199 -0.7854794571 -2.9761787626
C 2.2200747984 -0.9430985761 -2.1041746326
C 2.5133863711 0.0985224216 -1.2305399898
F 0.8517807010 -1.8013379177 -3.8198523682
C -2.6880225620 -0.7126524124 1.9547446364
O -2.6129187923 -1.9139986349 2.2331492190
N -3.5065127868 0.1159873763 2.6401809143
H -4.9651272852 -1.3237165178 -3.5440846500
H -5.3780698307 -1.8738298854 -1.9170969389
H -3.3044285418 -3.0124205999 -2.6183136405
H -2.5459505859 -1.4628158152 -3.0085171382
H -1.7767854103 -2.2903805021 -0.8369820627
H -3.4384673649 -2.4083574577 -0.2338536791
H -4.0117077216 1.1976506747 -0.1987683693
H -4.7412570790 -0.3865766384 0.1165198023
H -5.5896616324 0.5842008476 -1.9822553165
H -3.9440166376 0.7408251166 -2.6158198832
H -1.2627618967 1.6829233424 -0.1635738812
H -2.5825950512 1.9721246098 0.9523257161
H -0.5034773388 2.8833319271 1.8236662284
H -1.0702450126 1.5892438533 2.9007897892
H 1.3801846689 -0.8222350603 1.5970053957
H 0.0425667476 -0.6210257572 2.7410609597
H -0.1224273707 -0.5947625147 -0.3259736744
H -0.6466747069 -1.8873798148 0.7728954997
H 1.5123867224 2.6544159429 2.7726278115
H 1.6486780663 1.0634058076 3.5421837297
H 3.8280110749 1.6438783744 2.6120450180
H 3.1672048558 0.3594928945 1.6165434318
H 3.3286207196 3.3593630892 1.0285774324
H -0.4270540566 0.4515082940 -3.7362278233
H 2.7991497346 -1.8599742278 -2.1119790014
H 3.3457214618 -0.0195149916 -0.5467219276
H -4.0880955601 -0.2679933886 3.3695764489
H -3.6019993668 1.0921650917 2.4201527027
H 4.0759060285 2.0455518372 0.1104995327
H 0.1153233477 2.3093362617 -2.1521074118
