43
CONF61
C 3.6422586051 -1.5237107401 4.2125291826
C 3.2946989721 -0.4601620655 3.2010379793
O 3.6328947575 -0.9946830350 1.8783760521
C 3.3982391616 -0.1893914280 0.8383741285
O 2.9079724778 0.9172535150 0.9093155217
C 3.8901751085 -0.8389235720 -0.4559321616
C 5.3755066097 -0.5562282384 -0.6320307975
O 3.2229542344 -0.2685263987 -1.5806236829
C 1.8865708824 -0.5212997110 -1.7399506074
C 1.2861432575 0.1132708253 -2.8320637365
C -0.0628384376 -0.0776150394 -3.0931518646
C -0.8021199191 -0.9042714884 -2.2582636664
C -0.2230409845 -1.5435624070 -1.1767749468
C 1.1317710621 -1.3533121343 -0.9093474868
O -2.1517137790 -1.1480677594 -2.5655446042
C -3.0888365238 -0.3950805094 -1.9379645919
C -4.4407499327 -0.7096193625 -2.2799376795
N -5.4448320151 -0.0628484084 -1.7512300873
C -5.1459699542 0.9283588025 -0.8555925765
C -6.1973640987 1.6514459872 -0.2578898917
C -5.8851866129 2.6433982832 0.6406313663
C -4.5564695256 2.9589716516 0.9803416592
C -3.5238408215 2.2575527216 0.4004086910
C -3.7933704870 1.2302455061 -0.5264626841
N -2.7603110906 0.5406522082 -1.0934170248
Cl -7.1797095522 3.5570489122 1.4007482649
H 3.0679531032 -2.4367938952 4.0334103950
H 3.4010596425 -1.1551827280 5.2137838913
H 4.7091485633 -1.7612718323 4.1802939789
H 3.8681324847 0.4592210056 3.3520703516
H 2.2280547436 -0.2172223600 3.2048797446
H 3.7156308750 -1.9211287439 -0.4115510165
H 5.5528747491 0.5220066812 -0.6749923597
H 5.9351442522 -0.9787500061 0.2056345858
H 5.7253731448 -1.0167268101 -1.5589863207
H 1.8889818755 0.7525864124 -3.4682989841
H -0.5408166467 0.4108605172 -3.9357762804
H -0.8226781331 -2.1855740177 -0.5400404250
H 1.5691835052 -1.8636296756 -0.0595651493
H -4.6418727067 -1.5045530009 -2.9957894415
H -7.2225026954 1.4117509949 -0.5165331565
H -4.3545245323 3.7494876702 1.6941471991
H -2.4919731904 2.4840235830 0.6479440261
