45
CONF33
C -4.0098286378 -3.9942075431 -2.2460784136
C -3.7010311712 -2.5809266091 -2.6228754864
C -2.8914334207 -1.7692948144 -1.9339200050
C -2.6388979760 -0.3743554346 -2.3290927964
C -1.2344631279 0.2714060810 -2.2686322286
C -2.3701909629 0.7324339220 -1.3491088280
C -2.3123783511 0.4512514050 0.1340364663
C -2.9363678690 2.0960094509 -1.6827049118
C -0.0709104312 -0.4601376197 -1.7547707566
O -0.0508888892 -1.3528479853 -0.9293229937
O 1.0685130795 0.0139727861 -2.3423072648
C 2.3048545802 -0.5855214417 -1.8791282592
C 2.6391003835 -0.1338216457 -0.4856828845
C 2.8497547969 1.2140699113 -0.2098150817
C 3.1222041243 1.6619146088 1.0729174515
C 3.2198330355 0.7827485191 2.1463224067
C 3.0131600618 -0.5634170350 1.8696365107
C 2.7356335899 -1.0141723825 0.5861433227
F 2.5609454208 -2.3314808947 0.3963215565
F 3.0814572571 -1.4659198457 2.8644766097
C 3.4814128165 1.2737850344 3.5387052736
O 2.2219504806 1.6118712576 4.1230443403
C 2.3900398521 2.0905272637 5.4585916530
F 3.3052171539 2.9790130323 1.2723363165
F 2.7831567168 2.1104898924 -1.2100494673
H -3.4849013047 -4.2869985884 -1.3321954026
H -3.7224971826 -4.6857229236 -3.0477174040
H -5.0863212460 -4.1330464344 -2.0871854773
H -4.1817148788 -2.2025010387 -3.5266194983
H -2.4015145416 -2.1419960390 -1.0391265491
H -3.1782103166 -0.0688886849 -3.2238880130
H -1.0008442195 0.9462823043 -3.0848159338
H -1.7232376678 1.2269871797 0.6356792176
H -1.8691428639 -0.5157810390 0.3678542733
H -3.3271264849 0.4792494256 0.5463830827
H -2.3289688117 2.8855326771 -1.2262673215
H -3.9561604628 2.1818051493 -1.2906324449
H -2.9684684063 2.2642936282 -2.7628619802
H 2.2341891356 -1.6731486646 -1.9239440817
H 3.0565477583 -0.2319354476 -2.5869705085
H 4.1384642006 2.1546020095 3.5088220365
H 3.9793202739 0.4906787702 4.1269182881
H 2.8557330795 1.3254218923 6.0962143544
H 3.0100638777 2.9983317303 5.4778804708
H 1.3939483483 2.3234438789 5.8400974510
