33
CONF7
O -3.3057915775 -1.3408467430 4.0139026012
C -3.0679418630 -0.9585054720 2.7379738150
C -4.1110654358 -0.7226610827 1.8383245699
C -3.7990271886 -0.3312538060 0.5444311126
O -4.7948117164 -0.0754855708 -0.3183093500
C -2.4445760616 -0.1782603554 0.1303919035
C -2.1224817704 0.3471572071 -1.1658722030
O -2.9933148221 0.6293129951 -2.0162913358
C -0.6625522164 0.5934289140 -1.4385415041
C 0.2058746182 -0.3915502149 -0.6671787116
O -0.1118638753 -0.3194706840 0.7596729816
C -1.4231367954 -0.4457862230 1.0779794631
C -1.7232679806 -0.8277091786 2.3730034848
C 1.6766044702 -0.1393824347 -0.8136887095
C 2.4851011685 -1.0557711991 -1.4813857282
C 3.8451195227 -0.8028827513 -1.6552920499
C 4.4073918769 0.3609961194 -1.1496904213
O 5.7407738913 0.5925879760 -1.3191024243
C 3.5962759467 1.2832963840 -0.4652290891
O 4.2370595482 2.3958124516 0.0071441512
C 2.2414589618 1.0365981060 -0.3066467907
H -4.2588118118 -1.4200746877 4.1640274412
H -5.1480377445 -0.8312450831 2.1396493819
H -4.3533871933 0.2317555666 -1.1611034160
H -0.4674398962 0.5073344759 -2.5110156147
H -0.4274234986 1.6233417887 -1.1352498448
H -0.0268815076 -1.4138716528 -0.9955777131
H -0.9352855329 -1.0395311968 3.0857628634
H 2.0559366185 -1.9732459402 -1.8721665595
H 4.4829132781 -1.5097825127 -2.1763383147
H 5.9642524461 1.4421146688 -0.9109659466
H 3.6094766393 2.9720341860 0.4637816336
H 1.6288604171 1.7615452458 0.2236001437
