22
CONF233
C 2.1952810158 -0.1808028387 -0.1825248995
C 0.8659854137 -0.7583170211 -0.6546176845
C -0.2955358351 -0.4206566948 0.2769053992
C -0.5412213319 1.0811945210 0.4281403977
C -1.7918050772 1.3877436160 1.2571658853
O -2.9955832175 1.1736018547 0.5102524756
O -0.6068365516 1.7499408594 -0.8343164629
O -1.4987031391 -1.0312808295 -0.2190086517
O 0.9611168771 -2.2017616638 -0.6718150447
O 3.2756813671 -0.6239001257 -1.0070187797
H 2.3667091237 -0.4591807226 0.8690429924
H 2.1796940034 0.9104764172 -0.2562350216
H 0.6374096868 -0.3912459010 -1.6622286645
H -0.0643218646 -0.8226575873 1.2778877528
H 0.3191388061 1.5001377627 0.9646148774
H -1.7789627334 0.7900577292 2.1802091615
H -1.7890194373 2.4474699550 1.5289162661
H -2.9979797883 0.2354322509 0.2649125811
H -1.5192516388 1.6493068189 -1.1447273927
H -1.2874042159 -1.9598344903 -0.3913310187
H 1.0736862745 -2.4869842309 -1.5858750273
H 3.2919230616 -1.5887394836 -0.9483491362
