24
CONF12
C -4.2362365586 -0.2938971162 -0.9638855287
C -2.9054854539 -0.1946286813 -0.2280320498
C -2.1471206840 1.0703860902 -0.6540580202
C -0.7414195524 1.3273106109 -0.0105626750
C 0.2361748553 0.1092608127 -0.0607789938
C 1.7376081821 0.4905823136 0.1663474103
C 2.6502260504 -0.7207134120 0.5477180417
F 3.9310636272 -0.3305211132 0.4899446901
F 2.4676147952 -1.7322738695 -0.3140774896
F 2.3917728673 -1.1479412100 1.7876866966
F 2.2291625924 1.0269184275 -0.9708916470
F 1.8314237046 1.3988019329 1.1640373480
F 0.1340153802 -0.4881234752 -1.2750452819
F -0.1357503193 -0.7836700769 0.8871080187
F -0.9011623771 1.6974767693 1.2781415529
F -0.1649405934 2.3585346802 -0.6829910689
F -1.9849650072 1.0753503195 -2.0072010631
F -2.8962402271 2.1745874268 -0.3288392394
O -3.0564444909 -0.2205554241 1.1811847767
H -4.0910581896 -0.3498015428 -2.0452169295
H -4.8695712062 0.5705015935 -0.7427697628
H -4.7467187610 -1.1990617470 -0.6280100354
H -2.2778877098 -1.0559051419 -0.4787520794
H -3.6383627453 0.5078839384 1.4337694730
