45
CONF9
C 1.3496139388 -3.2629752942 0.7061233331
O 2.0823397952 -2.6469746509 1.7897507080
C 2.3681066523 -1.3470982030 1.6797252823
C 3.0777911726 -0.7434911109 2.7109782977
C 3.3518370615 0.6102646475 2.5349848845
O 4.0412637276 1.2274472966 3.5063052839
C 4.3274832979 2.6271830589 3.3246949480
N 2.9646367393 1.3093787793 1.4652667370
C 2.2867033779 0.6142054314 0.5478532568
N 1.8822117240 1.3631502682 -0.5512450632
C 1.0799822892 1.0439364845 -1.6486303780
O 0.7522209093 1.9076457653 -2.4439712378
N 0.7166686436 -0.2842536809 -1.7458922249
S -0.5221068880 -0.7695949541 -2.8043654560
O -0.0949005080 -0.5448660306 -4.1799024568
O -0.8872440072 -2.1013271180 -2.3271214981
C -1.8617612367 0.3470904516 -2.4515422156
C -2.6976823318 0.3763884712 -1.3322918433
C -3.6452410461 1.3651480565 -1.6476233328
N -3.4129214994 1.9042439300 -2.8435898252
N -2.3297369112 1.2819825634 -3.3242765563
C -1.7915495814 1.7010150449 -4.6167547335
C -2.6143451641 -0.3574270710 -0.0928943666
N -3.6629171251 -0.5259102587 0.7237722416
N -3.1107659543 -1.1852779935 1.7309994989
C -3.8596722621 -1.6287305842 2.8937380394
N -1.8119161006 -1.4233933210 1.5790211197
N -1.4789374939 -0.9000466727 0.4276747611
N 1.9744299914 -0.6799258265 0.5884378071
H 0.3749650996 -2.7865606217 0.5765091228
H 1.2273313597 -4.3022979458 1.0096162991
H 1.9207926756 -3.2066371500 -0.2251468961
H 3.3990371814 -1.2887246519 3.5868435541
H 4.8824575757 2.9178034771 4.2167123053
H 3.4028148839 3.2046088360 3.2427456554
H 4.9326424525 2.7857474450 2.4280926984
H 2.1321236981 2.3408348446 -0.5145990125
H 0.8456619198 -0.8603254744 -0.9021317027
H -4.4723654562 1.7061266027 -1.0416353191
H -0.7369980144 1.9570000158 -4.5040310434
H -1.8935966814 0.8991637193 -5.3505288973
H -2.3745646171 2.5703648338 -4.9189343265
H -4.6348653725 -2.3339479237 2.5840316147
H -3.1561351993 -2.1136863751 3.5703693334
H -4.3228929967 -0.7672566979 3.3802261955
