47
CONF534
C -2.2397041925 1.2070504598 3.6220160494
C -3.0130091962 1.1338011901 2.3071082907
C -3.7067387590 2.4543289310 1.9752213805
C -4.4788938542 2.4448897499 0.6711516954
O -3.5542383904 2.3827400768 -0.4667328004
C -3.3980606909 1.2155848278 -1.1000879633
O -3.9262425584 0.1663442259 -0.8017300601
C -2.4958781706 1.4023987648 -2.3226422505
C -3.3480966704 1.7881708240 -3.5225856807
O -1.8517914355 0.1702419167 -2.6498080023
C -0.9330472446 -0.3321441984 -1.7683086474
C -0.4580890221 -1.6140076477 -2.0656581955
C 0.4831053931 -2.2155539097 -1.2438743810
C 0.9409372046 -1.5316716668 -0.1239361384
C 0.4790522036 -0.2639997154 0.1852791152
C -0.4627295008 0.3467915290 -0.6416319742
O 1.8393396110 -2.1670547726 0.7435552726
C 3.1727630573 -1.9817206600 0.5416279339
C 3.6870562992 -1.1952841520 -0.4978945179
C 5.0603260827 -1.0858461002 -0.5952129230
C 5.8658528869 -1.7549868250 0.3291407422
C 5.2520110343 -2.5087410210 1.3224867599
N 3.9259185083 -2.6233913832 1.4293358388
C 7.3501771352 -1.6244587931 0.2517038792
F 7.8145487984 -1.8344734530 -1.0082653209
F 7.9925126058 -2.4947599155 1.0624563100
F 7.7711901454 -0.3766358521 0.6033880275
H -1.7468820323 0.2559067782 3.8458532685
H -1.4684155464 1.9838771864 3.5762706873
H -2.9074671415 1.4472448870 4.4567875228
H -2.3248675329 0.8644809958 1.4971908308
H -3.7638105839 0.3352317402 2.3553833387
H -4.4253577306 2.7007730441 2.7684560697
H -2.9734770321 3.2708742168 1.9517184133
H -5.0230064312 3.3805414053 0.5250832947
H -5.1701936791 1.6005132216 0.6107185795
H -1.7549741304 2.1851150824 -2.1211750196
H -2.7070475691 1.9132321047 -4.3985068058
H -3.8621899167 2.7316632105 -3.3243381562
H -4.0899009348 1.0107921505 -3.7254340478
H -0.8382021937 -2.1275921619 -2.9423902599
H 0.8590854525 -3.2095708106 -1.4631207146
H 0.8515862979 0.2496846594 1.0657281945
H -0.8050198302 1.3432137664 -0.3896237108
H 3.0362552297 -0.6911429932 -1.2008333301
H 5.5020709792 -0.4865291323 -1.3850806539
H 5.8435420399 -3.0431218758 2.0612093767
