27
CONF12
C -5.2068242825 0.0036069754 -0.3382884377
C -3.7402903153 -0.3025349406 -0.3621831913
C -3.1144111179 -1.0771796617 0.6193213442
C -1.7608339365 -1.3696577504 0.6029085633
C -0.9634161927 -0.8732766266 -0.4350945596
C -1.5463054162 -0.0877064467 -1.4341217655
C -2.9093381217 0.1778186612 -1.3780834683
N 0.4061140355 -1.1894334721 -0.3835393397
C 1.3480813496 -1.0198731819 -1.3568099843
O 1.1303288170 -0.5719520683 -2.4802935640
C 2.7148316472 -1.4462412727 -0.9585974540
C 3.3791612916 -1.3796937836 0.2548588651
N 4.6727248788 -1.8269850705 0.1704737740
N 5.0492354818 -2.2265260043 -0.9852548946
S 3.7863651748 -2.0610108520 -2.1441690442
C 2.8774889917 -0.8700576295 1.5651574581
Cl -4.0737556546 -1.7250928639 1.9481591043
H -5.8022569299 -0.9151601975 -0.3693294233
H -5.4844363580 0.5348970452 0.5783225429
H -5.4784580606 0.6229477106 -1.1951434823
H -0.9474622830 0.3097125508 -2.2396883816
H -3.3519452874 0.7887811095 -2.1593474103
H 2.1868150457 -0.0346338321 1.4298200068
H 2.3596417157 -1.6588923252 2.1236945521
H 3.7232199744 -0.5368908254 2.1693757480
H -1.3258054223 -1.9781197976 1.3888959061
H 0.6994721169 -1.6913272318 0.4429507654
