48
CONF12
Cl -2.7077985132 -3.8514111832 3.6174140482
C -3.1127204024 -2.4681182973 2.6062558436
C -4.2461428358 -1.7280912009 2.9002877734
C -4.5244946462 -0.6317699055 2.0847115278
C -3.7051305472 -0.2954223974 1.0203610478
C -2.5540458446 -1.0517778100 0.7327579842
C -2.2639065677 -2.1541920975 1.5524919418
N -1.7481479326 -0.7120763343 -0.3660894433
C -0.6566532667 -1.6280308554 -0.6878227564
C -0.0080297059 -1.2589716489 -2.0126287705
N 0.4886593397 0.1140701935 -1.9750313405
C 1.2136977240 0.4513632060 -3.2039384615
C 2.1367788147 1.6624657641 -3.0569939507
C 3.3715726427 1.4063581741 -2.1887306256
N 3.0432632904 1.1113573688 -0.8087116450
N 2.4679782193 2.0842052606 -0.0206054061
C 2.0572623676 1.4303215930 1.0430411945
C 1.3879509781 1.8840266933 2.2060233498
C 1.0211638010 0.9672660695 3.1498523494
C 1.3115882788 -0.4242286472 2.9923600448
C 1.9723564117 -0.8561071440 1.8873221914
N 2.3397570535 0.0662816660 0.9460106355
C 2.9382963025 -0.1654423769 -0.3103308337
O 3.2725591068 -1.2394468365 -0.7855000608
C -0.6323802718 1.0166465367 -1.7285625935
C -1.2951175090 0.6877717574 -0.4020111808
H -4.8898833042 -1.9994002836 3.7273037464
H -5.4137688080 -0.0402470602 2.2781800643
H -3.9759133211 0.5379606576 0.3829467922
H -1.3802911261 -2.7568358616 1.3964554808
H 0.1204282579 -1.6223672398 0.0978750707
H -1.0588280614 -2.6437354429 -0.7655946977
H 0.8409556693 -1.9323199270 -2.1756753797
H -0.7386100122 -1.4090617625 -2.8339406958
H 1.8252386416 -0.4187313081 -3.4753536751
H 0.5115050017 0.6243717133 -4.0444422551
H 1.5955002409 2.5292379283 -2.6634508772
H 2.4923956204 1.9446523570 -4.0554546755
H 4.0298536647 2.2819817817 -2.2012342617
H 3.9326898941 0.5418819683 -2.5592000694
H 1.1725877264 2.9410906638 2.3042572433
H 0.4925436839 1.2942467316 4.0384012833
H 1.0065005807 -1.1380896855 3.7464928515
H 2.2479258232 -1.8822558804 1.6718069562
H -1.3842156688 0.9559780564 -2.5429453088
H -0.2679263445 2.0483782906 -1.6776307515
H -2.1478351830 1.3543529113 -0.2585876493
H -0.5791686760 0.8763035817 0.4178584366
