44
CONF17
C 1.1523289418 -0.6069750079 -3.7216457186
C 1.9472523512 -0.5578987882 -2.4633099550
N 1.3789889306 -1.0271402334 -1.3459654904
C 2.1488640750 -0.9797911645 -0.2479041191
N 3.4036545525 -0.5327365986 -0.1941041408
C 3.8640281343 -0.0968808580 -1.3717394872
N 3.1931612209 -0.0743554235 -2.5286191447
O 5.1138965090 0.3502065761 -1.3257874770
C 5.6998235518 0.8481403368 -2.5568733822
N 1.6283903756 -1.4233841612 0.9511563319
C 0.3310681999 -1.8150227104 1.2959928318
O 0.0592737684 -2.0872906968 2.4551167714
N -0.5704835871 -1.8483097569 0.2583887323
S -2.2250779345 -2.1718363473 0.4911253959
O -2.8029770559 -1.9552636196 -0.8438409913
O -2.3730505284 -3.4857666136 1.1245677331
C -2.7962941443 -0.9100023230 1.6383185054
C -3.3225613921 -1.3830985090 2.8408430781
C -3.8423573808 -0.4844925848 3.7616755093
C -3.8306695545 0.8770319000 3.4724545447
C -3.2995792095 1.3309330530 2.2718702263
C -2.7660389170 0.4567794204 1.3185416679
C -2.1831308940 1.0575348684 0.0612420194
C -0.8250563246 1.7153037131 0.3502958561
C -0.2714096685 2.4322648695 -0.8511274113
F -0.2205552021 1.6457945753 -1.9579177526
F -1.0147550249 3.5187483777 -1.1889801757
F 0.9930213064 2.8762113688 -0.6307008859
H 1.3308197212 0.2903723518 -4.3176337044
H 1.4858731819 -1.4680344316 -4.3135053932
H 0.0897156778 -0.7228577935 -3.5073401979
H 6.7079610490 1.1516266957 -2.2785025519
H 5.7282946701 0.0569443296 -3.3086809138
H 5.1285386449 1.7010062760 -2.9289263455
H 2.2582096183 -1.3753914910 1.7428260985
H -0.2406431329 -1.5597467974 -0.6795933263
H -3.3222425145 -2.4462953732 3.0474722208
H -4.2542640671 -0.8490676199 4.6964217148
H -4.2391049948 1.5890147649 4.1822271832
H -3.2975975467 2.3952739839 2.0530675313
H -2.8796583073 1.8212441414 -0.3009501153
H -2.0759727908 0.3180990004 -0.7318550430
H -0.9061794144 2.4553257169 1.1522435296
H -0.0835058832 0.9737825731 0.6586000272
