40
CONF34
C -5.8903920251 -2.1933820300 1.3100019795
N -4.8956667107 -2.7372933155 0.3769493967
C -3.5563356084 -2.1712244351 0.5771470000
C -3.4523752618 -0.7542703754 0.0145355641
C -2.0726901785 -0.1410995164 0.2263153423
O -1.1525659692 -0.9687860183 -0.5256602894
C 0.1812808729 -0.8305339848 -0.3184634492
C 0.9960927639 -1.6664953150 -1.0931877872
C 2.3723570696 -1.6211721599 -0.9556493594
C 2.9531659591 -0.7332454368 -0.0470756183
C 2.1435701933 0.0986678403 0.7237990440
C 0.7606314078 0.0600177698 0.5933935786
C 4.4312637330 -0.7061922728 0.1516804603
F 5.1104400725 -1.2365604832 -0.8937951973
F 4.8180116339 -1.4148926096 1.2558268672
F 4.9083210603 0.5530975744 0.3357534847
C -2.0256417390 1.2985112916 -0.2309541615
C -1.7883986990 1.6207512281 -1.5681158566
C -1.7983566254 2.9507741917 -1.9809288695
C -2.0512904342 3.9687098688 -1.0633584015
C -2.2912323417 3.6505685671 0.2720460950
C -2.2744370156 2.3213437280 0.6858619191
H -6.8223947107 -2.7591187193 1.2163398146
H -6.1129404965 -1.1494065635 1.0663194457
H -5.5635892682 -2.2320669461 2.3644560002
H -2.8369752012 -2.8158732538 0.0609795060
H -3.2697792432 -2.1479923718 1.6469448067
H -3.6848120041 -0.7507777035 -1.0576426712
H -4.1731818194 -0.0925112846 0.5071386831
H -1.8119510933 -0.2024606987 1.2924907107
H 0.5305246620 -2.3478210057 -1.7973406135
H 2.9926703932 -2.2753869462 -1.5579763004
H 2.5884041740 0.7901285879 1.4321684896
H 0.1553462654 0.7267515917 1.1936458530
H -1.5888921259 0.8297210400 -2.2846572308
H -1.6078964019 3.1925026647 -3.0222023133
H -2.0570813532 5.0049725445 -1.3866517266
H -2.4833412525 4.4384370461 0.9939580298
H -2.4511449658 2.0741562454 1.7298838058
H -4.8349392608 -3.7376192852 0.5333400909
