47
CONF96
C -3.8231943785 3.5727649204 -4.0128501466
O -3.4368546415 3.1148707163 -2.6927092160
C -2.1287042632 2.9415736361 -2.5090737447
C -1.6157284334 2.5219782879 -1.3278591124
C -2.4664784833 2.2555807041 -0.1487700148
C -3.3129286024 3.2379050620 0.3808477064
C -4.1350016995 2.9674947837 1.4684652069
C -4.1370732604 1.6978282563 2.0441498488
C -3.3118633590 0.7015315849 1.5331385762
C -2.4867165456 0.9967916539 0.4577618289
O -1.7253049424 -0.0079503178 -0.1492067319
C -0.7152576036 -0.6048473755 0.5249574562
C 0.0059996313 -1.5650740426 -0.1759175160
C 1.0425244753 -2.1456684805 0.5365827196
N 1.3507840292 -1.8325544312 1.7931256520
C 0.5781118395 -0.8956700347 2.3488186020
N -0.4472474516 -0.2595732451 1.7848825668
O 1.7767954453 -3.0968326044 -0.1078569059
C 2.8336556185 -3.6865413657 0.5744873960
C 2.6705490912 -4.9482795295 1.1153559205
C 3.7583662510 -5.5717962812 1.7219389602
C 4.9977415785 -4.9368231354 1.7843145663
C 5.1620096710 -3.6725879051 1.2371525989
C 4.0739344252 -3.0355797602 0.6231924106
C 4.2146423100 -1.7431301196 0.0540515676
N 4.3304310841 -0.6864799681 -0.4071410828
C -0.1581321460 2.3427992336 -1.2833188328
O 0.5948634817 2.3460758102 -2.2463901686
O 0.2788671867 2.1830662490 -0.0138013875
C 1.6936946407 1.9251858033 0.1342552867
H -3.3828169977 4.5540254537 -4.2108945972
H -4.9099139738 3.6444227568 -3.9975271877
H -3.5025823057 2.8490013692 -4.7675704678
H -1.4739640854 3.1438388991 -3.3557873684
H -3.3120378621 4.2246863466 -0.0706340618
H -4.7774043669 3.7466492194 1.8656461026
H -4.7839045441 1.4783774524 2.8873391557
H -3.3077168553 -0.2967297799 1.9562853814
H -0.2205858069 -1.8311811150 -1.2003628435
H 0.8137917635 -0.6220912100 3.3764076933
H 1.7001003218 -5.4290113346 1.0589911009
H 3.6342992875 -6.5615385857 2.1483971538
H 5.8396319064 -5.4295231609 2.2576165567
H 6.1205815516 -3.1674395320 1.2743846325
H 1.8559176664 1.8153099450 1.2062703282
H 2.2778749464 2.7604147097 -0.2594659026
H 1.9662440987 1.0047303554 -0.3888813000
