46
CONF72
C -1.5249797612 -1.3116819558 -1.1659961343
C -2.7209369302 -0.3893400344 -1.1771802115
C -3.5740503261 -0.2202910763 0.0544284729
C -2.6720830779 0.9371024844 -0.4192693394
C -1.4768116156 1.3386253805 0.3434213911
O -0.8664215261 0.6648308552 1.1532173670
O -1.1216344737 2.6040914338 0.0091323064
C 0.1157560065 3.1081579980 0.6088149965
C 1.3087288760 2.5991184543 -0.1500439093
C 2.0708689806 1.5509974233 0.3624766436
C 3.1420786962 1.0570565082 -0.3767446204
C 3.4809273298 1.6066878759 -1.6084436204
C 2.7253025700 2.6658019458 -2.1063735808
C 1.6404888312 3.1583912475 -1.3881725237
O 3.9523397323 0.0463123278 0.1122626191
C 3.3568543290 -1.0266690795 0.7563811072
C 2.1593583928 -1.5818871017 0.3090310383
C 1.6466027386 -2.6978686983 0.9639381886
C 2.3238858333 -3.2607044304 2.0447817658
C 3.5264670759 -2.6998755018 2.4702630859
C 4.0476209147 -1.5776677041 1.8313949987
C -3.3033666532 -0.9544029256 1.2931709010
C -4.1848928999 -1.1350544853 2.2766266523
Cl -3.8090120067 -2.0737660237 3.7013334142
Cl -5.7991780045 -0.4747499977 2.2846942128
C -3.4414862660 -0.3433513257 -2.5067443232
H -0.9758056500 -1.2856044572 -0.2252949680
H -1.8534619123 -2.3399253106 -1.3522877271
H -0.8354131644 -1.0257728628 -1.9676136856
H -4.6235983617 -0.0175465377 -0.1356548887
H -3.1930018619 1.7608034714 -0.8954677252
H 0.1510166731 2.8169765333 1.6607066589
H 0.0230819201 4.1920364489 0.5219901109
H 1.8205094890 1.1141782291 1.3228169141
H 4.3242491960 1.2051764769 -2.1604270984
H 2.9863901465 3.1031974070 -3.0648334859
H 1.0497705661 3.9794367834 -1.7833347269
H 1.6374734939 -1.1474369428 -0.5370210595
H 0.7139904170 -3.1338644528 0.6185232381
H 1.9181857142 -4.1311811558 2.5495639618
H 4.0627113044 -3.1312166369 3.3098188371
H 4.9795928734 -1.1255528268 2.1545773384
H -2.3291215103 -1.4067482626 1.4351338506
H -3.7910859473 -1.3464703720 -2.7747062701
H -2.7629600761 0.0031791225 -3.2936609306
H -4.3049487205 0.3264717670 -2.4722056294
