45
CONF24
C 7.6683385040 0.6447116684 -1.7675823458
C 6.2396262316 1.1154881549 -1.5011407043
C 5.4805843882 0.1890561539 -0.5515032158
C 4.0513826030 0.6511111229 -0.2719325056
C 3.2926706967 -0.2802512256 0.6725345320
C 1.8663623781 0.1876564933 0.9575189551
C 1.1168063500 -0.7492809111 1.9017160164
C -0.3427804905 -0.3272017658 2.1662559284
C -1.2256721960 -0.3867485763 0.9439141802
C -1.6382808252 -1.6428506867 0.4859059891
N -2.4046405026 -1.6508269894 -0.6426464268
C -2.7697857528 -0.4890395637 -1.3038406754
N -3.5176572819 -0.8294516470 -2.3688073352
C -3.5655785381 -2.1777853553 -2.2907622481
N -2.9158214374 -2.7462615410 -1.2714359854
N -2.4063202959 0.7176901791 -0.8769830151
C -1.6512847382 0.7600347739 0.2286293422
C -1.2698854853 2.1368983685 0.7229326525
C -1.7487514430 3.2933717309 -0.1452115145
N -1.3328962995 -2.8375361525 1.0282696597
H 8.1938311521 1.3204861664 -2.4498387758
H 7.6723992076 -0.3553697584 -2.2153924343
H 8.2425389152 0.5942264051 -0.8356760104
H 5.6910636034 1.1865215518 -2.4497630820
H 6.2575165939 2.1286996410 -1.0779696326
H 6.0306900010 0.1144410188 0.3973750553
H 5.4586897837 -0.8247652158 -0.9760904873
H 3.5024084171 0.7299970325 -1.2209047514
H 4.0742449064 1.6628858986 0.1570634801
H 3.8434175198 -0.3647846296 1.6200342146
H 3.2627857166 -1.2904402231 0.2403922339
H 1.3171882514 0.2703482064 0.0090718709
H 1.8958560553 1.1960493704 1.3930726712
H 1.1423830826 -1.7654378116 1.4879777375
H 1.6409911469 -0.7914141201 2.8648794768
H -0.7655563612 -0.9676808852 2.9523151951
H -0.3491059043 0.6835936890 2.5799825690
H -4.0985888299 -2.7899228879 -3.0088314931
H -0.1797046377 2.1806408156 0.8279497790
H -1.4219123804 4.2396096104 0.2958398188
H -2.8385636538 3.3088627695 -0.2254829995
H -1.8406150330 -3.6506051473 0.7138628905
H -0.9347844024 -2.8705997603 1.9519270459
H -1.6630316702 2.2525836749 1.7420364526
H -1.3408390646 3.2264710407 -1.1572679272
