44
CONF17
C -1.6373102622 -1.4799319072 1.6325343257
C -1.0535505923 -0.1242311345 1.2474171072
C -1.9360397261 0.7678078697 0.3667980548
O -1.5210822600 1.7772269514 -0.1567413419
O -3.2041985761 0.3425660000 0.3386216717
C -4.1315583667 1.1119947235 -0.5016420605
C -3.9551728827 0.6721113205 -1.9431520660
C -5.5127183183 0.8322766621 0.0534383640
N 0.2666854976 -0.2442238155 0.6059961676
C 1.4239619825 0.0169315864 1.3860017758
C 2.3870776324 -0.9714650048 1.5854242354
C 3.5200738746 -0.6942497024 2.3392764167
C 3.6704759258 0.5569388506 2.9121121581
C 2.7043540891 1.5457869096 2.7360685552
C 1.5831577004 1.2782168722 1.9634182340
Cl 2.9256600504 3.1105916508 3.4634401954
F 4.7601836161 0.8152492700 3.6506726464
C 0.2854432459 -0.6781701594 -0.7025267236
O -0.7491248953 -1.0359021423 -1.2571560928
C 1.5862746329 -0.6711683926 -1.4381163893
C 2.4409375803 0.4333408390 -1.4305967008
C 3.5947931742 0.4230638609 -2.2051448625
C 3.9111200034 -0.6932171444 -2.9748072973
C 3.0544808599 -1.7911439160 -2.9922743774
C 1.8867359401 -1.7739466562 -2.2396869841
H -1.8531316638 -2.0706175073 0.7419560078
H -0.9193056116 -2.0158721347 2.2609716809
H -2.5613068767 -1.3448313450 2.1986048144
H -0.8920137909 0.4610351281 2.1611304648
H -3.8699673250 2.1695709020 -0.3914387075
H -2.9316285881 0.8488266733 -2.2799942051
H -4.6389750555 1.2352808806 -2.5859218429
H -4.1771364270 -0.3945353323 -2.0434742137
H -5.7452623014 -0.2348101749 -0.0150479055
H -6.2592594090 1.3855239648 -0.5236996666
H -5.5857195439 1.1406804175 1.0997585572
H 2.2528890409 -1.9493884486 1.1373974226
H 4.2880277827 -1.4415496095 2.5038997939
H 0.8480525012 2.0554229493 1.7818936037
H 2.1927519278 1.3062894961 -0.8368429792
H 4.2480725637 1.2895151112 -2.2085806192
H 4.8187684341 -0.7026645678 -3.5697160005
H 3.2918665681 -2.6569406149 -3.6019639201
H 1.1926189647 -2.6073884965 -2.2683072702
