41
CONF10
C -2.9850910793 -1.8797843585 1.8136992061
C -3.0312845065 -1.1013424183 0.5402737805
C -4.0061572704 -1.3008660606 -0.4246367149
C -3.9777584214 -0.5009233607 -1.5717180549
N -3.0434625302 0.4427812357 -1.7366897907
C -2.1439084716 0.5620706962 -0.7491506026
N -2.0797793809 -0.1618929343 0.3682942453
N -1.2016914559 1.5649004755 -0.9596733215
C -0.1372453330 2.0001962961 -0.1800652195
O 0.5745362125 2.9242596058 -0.5502231185
N 0.0393544074 1.3170399840 1.0023486209
S 1.3828508107 1.5602896201 2.0035660279
O 1.3271649499 0.4266752433 2.9382990796
O 1.3487722980 2.9330437001 2.5143350745
C 2.8542235620 1.3932599762 0.9797326256
C 3.5243819143 2.5631086596 0.6373084188
C 4.7381527386 2.4823772675 -0.0361244082
C 5.2860519592 1.2392398294 -0.3363936409
C 4.6193082188 0.0742233336 0.0262648188
C 3.3851231933 0.1342632476 0.6745266521
C 2.7315581621 -1.1713812351 0.9993523290
O 3.2802058602 -2.0575598365 1.6181788384
O 1.5143640534 -1.2609166376 0.4499854186
C 0.8034720619 -2.4997956738 0.7090033230
C -4.9963199477 -0.6687024765 -2.6535864474
H -1.9951596522 -2.3238442175 1.9530577771
H -3.1579821043 -1.2072665007 2.6611351803
H -3.7413402325 -2.6657247990 1.8245189420
H -4.7729247770 -2.0557411159 -0.2937564655
H -1.3145110203 2.0849686604 -1.8200813003
H -0.5572976197 0.4865344208 1.1647411166
H 3.1012627259 3.5232397288 0.9048194032
H 5.2586562234 3.3931275925 -0.3116153766
H 6.2391745482 1.1731079880 -0.8502094321
H 5.0449757637 -0.8977406454 -0.1999567426
H 1.3872404557 -3.3485297001 0.3462763219
H -0.1331105034 -2.4103653796 0.1607835089
H 0.6206523892 -2.6013430683 1.7816501218
H -4.9725963163 -1.6937918815 -3.0376573463
H -4.8125844929 0.0290424419 -3.4710798388
H -6.0012772976 -0.5002382059 -2.2523745003
