38
CONF27
C 2.8890720038 -0.2930792503 -2.2070393254
C 2.7291188730 -0.4828805855 -0.7377135660
N 1.5287042547 -0.9104870383 -0.3058189769
C 1.4034353332 -1.0109815332 1.0183236341
N 2.3658443732 -0.7570664226 1.9168084517
C 3.5128177958 -0.3630802072 1.3690002646
N 3.7584856923 -0.1977471419 0.0574806328
O 4.5531952930 -0.0886915661 2.1484516744
C 4.3815692279 -0.2402915140 3.5801623158
N 0.1963309060 -1.4019133107 1.5578080428
C -1.0387267321 -1.6578071736 0.9543239085
O -2.0269901019 -1.8504358728 1.6431751931
N -1.0271131888 -1.6872467024 -0.4251860813
S -2.4737662563 -1.6785047609 -1.3162101421
O -3.2564960228 -2.8622137049 -0.9556416218
O -2.0511759106 -1.4873451919 -2.7049459889
C -3.3892504951 -0.2577926237 -0.7253927068
C -2.9788122447 1.0653419746 -0.7588903407
S -4.2325638250 2.0830417080 -0.1184822613
C -5.2647711745 0.7391562229 0.1709523310
C -4.6859102551 -0.4464829800 -0.1954183998
C -1.7056679314 1.6411419653 -1.2082488927
O -0.7664069435 0.9944749959 -1.6287891515
O -1.7106375753 2.9805447016 -1.0906400126
C -0.4875380220 3.6445251439 -1.4986481979
H 3.9427794623 -0.2916031660 -2.4861733096
H 2.3426550284 -1.0640341626 -2.7542588629
H 2.4539966538 0.6755881847 -2.4826017784
H 4.1320331144 -1.2753234809 3.8236686997
H 3.5975145855 0.4293483109 3.9401854576
H 5.3462963567 0.0330433513 4.0050888225
H 0.1620886813 -1.4285923958 2.5693764806
H -0.1859924770 -1.3054745275 -0.8907495336
H -6.2455843436 0.8909099288 0.6025747964
H -5.1578227954 -1.4137753017 -0.0912091995
H -0.2922441248 3.4494099077 -2.5555112761
H 0.3490892891 3.2893739370 -0.8923591892
H -0.6675578013 4.7044856914 -1.3274518799
