39
CONF227
C 8.5456612740 2.6742249717 -0.0366361668
C 8.0239909391 1.2429105652 -0.1432076367
C 6.5290435142 1.1374606452 0.1554652373
C 6.0110873344 -0.2997703375 0.0820223440
C 4.5000814177 -0.4416061412 0.3259196496
C 4.1089820076 -1.8599608290 0.7665479439
C 4.4853222537 -2.1715245558 2.2136029936
C 3.7563869643 -0.0485978032 -0.9454487057
O 2.3167471079 0.0207240811 -0.7206884116
C 1.8706971806 1.1643371457 -0.1671535775
O 2.5530538933 2.1221655937 0.1036713807
C 0.3836003256 1.1069862477 0.0103144686
C -0.3831226765 0.7338448519 -1.0878584236
C -1.7672855792 0.7637681520 -1.0268551490
C -2.4165148194 1.1482168465 0.1502281697
C -1.6464662833 1.4927423091 1.2759059604
C -0.2471177256 1.4751210026 1.2017373803
Br 0.8075082194 1.8591335724 2.7297393758
Br -2.5046353538 1.9749308777 2.8917950055
Br -4.3039086873 1.1904085117 0.2186782038
Br -2.7200208479 0.2629848374 -2.5908155197
H 8.3879090435 3.0740175010 0.9706722425
H 9.6163263175 2.7287604968 -0.2552548117
H 8.0255487369 3.3341501728 -0.7391859839
H 8.2197649029 0.8518130846 -1.1504314780
H 8.5774494378 0.5950874862 0.5496027908
H 6.3273337722 1.5376094070 1.1582076060
H 5.9774845668 1.7827158899 -0.5406385177
H 6.5511206049 -0.9029838516 0.8212870649
H 6.2593560438 -0.7366108499 -0.8975261026
H 4.2074992804 0.2671296603 1.1133086327
H 4.5839916670 -2.5831962298 0.0882313753
H 3.0264755038 -1.9855150164 0.6483202009
H 3.9758387088 -1.4868176408 2.9000350288
H 4.1958132688 -3.1914181734 2.4829954531
H 5.5616493323 -2.0786317705 2.3884556770
H 3.8701534771 -0.8186968541 -1.7147241919
H 4.0940108850 0.9159111145 -1.3333483503
H 0.1098321502 0.4299690749 -2.0024521941
