27
CONF6
C 2.3905697470 2.1901143603 -0.6688460031
C 2.8387972817 0.7978572519 -0.3010076030
O 1.7040809919 0.1445963704 0.3569706357
C 1.8755137981 -1.1302989086 0.7020535179
O 2.8956433038 -1.7695583703 0.5525287446
C 0.6421706938 -1.7323436851 1.3500979144
N -0.5515369811 -0.8984096602 1.3025218018
C -1.3147356076 -0.5869163043 0.1755331682
C -2.3800926967 0.2889899867 0.4724955204
C -3.2774988805 0.7375814032 -0.4840232528
C -3.1145534881 0.3070804425 -1.7951046831
C -2.0706316938 -0.5501423918 -2.1263482312
C -1.1765395859 -0.9953134384 -1.1562991370
Cl 0.1059737969 -2.0674776771 -1.6999062438
S -2.3967620988 0.7259839738 2.1719906128
C -0.9419621546 -0.2757555550 2.4782011129
O -0.3943631391 -0.3849915311 3.5593930425
H 2.1106791439 2.7595852968 0.2216498090
H 1.5381884195 2.1565163074 -1.3533482311
H 3.2138215196 2.7098620111 -1.1671831540
H 3.6802847487 0.8013041563 0.3978776571
H 3.1076244254 0.2026578465 -1.1787340060
H 0.4564164409 -2.7128125173 0.9095628076
H 0.8789289031 -1.8856058214 2.4080205921
H -4.0819555753 1.4100574779 -0.2082273379
H -3.7989699267 0.6402872378 -2.5671268620
H -1.9390918781 -0.8828484842 -3.1494134996
