26
CONF46
C -2.4744558760 -0.0370913535 0.8725256070
C -1.5895271806 0.9500037781 0.1287682731
C -0.2353302358 0.3681379153 -0.3193419963
C 0.5923575218 -0.1740093009 0.8626283334
C 2.0691074801 -0.4888799048 0.5582394009
C 2.3579648278 -1.5693266100 -0.4838314919
O 2.2054030297 -1.0879320852 -1.8209250242
O 2.7629125170 0.7205847637 0.2220313393
O 0.5589817573 0.7561278744 1.9539690818
O -0.4120351615 -0.6466773352 -1.3203726410
O -2.3531799681 1.4003514986 -0.9991232442
O -2.7428164923 -1.2304973349 0.1084482879
H -1.9799716921 -0.3598746069 1.7918154021
H -3.4147750009 0.4592830530 1.1443821569
H -1.3846685793 1.7841232658 0.8135240738
H 0.3277567426 1.1770146772 -0.8080059716
H 0.1195621285 -1.0966506663 1.2256239307
H 2.4905412040 -0.8326215880 1.5125021894
H 1.7256518888 -2.4483547804 -0.2949784936
H 3.4056466704 -1.8705054353 -0.3833720998
H 2.7323688465 0.7827410377 -0.7457557494
H 1.1699806939 1.4702560595 1.7179330186
H -1.1119425812 -1.2403927785 -0.9935063316
H -1.7979340330 1.9861443719 -1.5293819756
H 1.2414710996 -0.9982783216 -1.9497723937
H -3.3434820284 -0.9798519783 -0.6063343281
