61
CONF315
C -4.3034827945 2.3299311839 -2.8132952291
C -4.6908058102 1.1013326045 -1.9917765760
C -3.5859792103 0.0457573871 -1.9850351614
C -3.9147704749 -1.2107527939 -1.1707535337
C -2.8475034016 -2.3170479222 -1.3360257488
C -1.8846568759 -2.1365369168 -0.1255212405
N -2.4417995907 -1.0199584930 0.6460399032
C -3.8763623075 -0.9723828058 0.3402738824
C -2.1325007874 -1.0898717694 2.0704017766
C -0.4596650206 -1.8642412534 -0.5874326253
O 0.2957694010 -2.7945891862 -0.9206772830
N -0.1166683286 -0.5686135352 -0.6286103705
C 1.1655766264 -0.0645719450 -1.0835618468
C 2.1096660261 0.2895933083 0.0858354880
C 3.0122404060 -0.8739113494 0.5016057858
C 3.8717224112 -0.4677849541 1.7101639127
C 2.9962472273 0.1205746474 2.8216901722
C 2.0414989567 1.2048632494 2.2975290804
O 1.2986233185 0.7407319930 1.1804094436
S 2.8865342989 2.8324034947 1.9958979824
C 1.4303373363 3.9186200231 2.2496323966
O 2.2281108842 -0.9098486167 3.4441572335
O 4.8201313829 0.5335675071 1.3491907968
O 2.2927053848 -2.0435480885 0.8980907106
C 0.9571284533 1.1138321315 -2.0576035365
C 0.3183605225 2.3445241201 -1.4306349410
O 0.2262195490 0.6694566093 -3.2077299052
H -4.0955613500 2.0551768269 -3.8534026141
H -5.1009231352 3.0795814496 -2.8156615548
H -3.4003572559 2.7998524307 -2.4068884150
H -4.9217739545 1.4090595256 -0.9643855049
H -5.6094899509 0.6565968495 -2.3971866845
H -2.6601719486 0.4942523141 -1.5986526813
H -3.3790519256 -0.2531263843 -3.0219767451
H -4.8986503271 -1.5835284721 -1.4780817196
H -3.3054215483 -3.3078954408 -1.2878893975
H -2.3230716234 -2.2391522879 -2.2931494613
H -1.8428417751 -3.0678361469 0.4633826854
H -4.4298164886 -1.7725594296 0.8676353005
H -4.2974458731 -0.0093113975 0.6486980599
H -2.5513121217 -1.9949947297 2.5465779552
H -2.5382185534 -0.2093271352 2.5789380466
H -1.0458896035 -1.0951325553 2.2162071242
H -0.7880547330 0.0555724691 -0.1903933315
H 1.6352614043 -0.8666873865 -1.6644012310
H 2.7726861166 1.1090712377 -0.2340197526
H 3.6802705104 -1.1001993839 -0.3461934987
H 4.3705453241 -1.3650662146 2.1038876939
H 3.6378741191 0.5539893431 3.5954972118
H 1.2970257424 1.3973316762 3.0763486211
H 1.0900459352 3.8707469508 3.2872499371
H 1.7486009766 4.9383402644 2.0200697297
H 0.6177242874 3.6387050249 1.5748142952
H 1.8705161452 -1.4634869622 2.7282112560
H 5.4064493354 0.1650335988 0.6756530486
H 1.7370748680 -2.3617921112 0.1565862331
H 1.9501526302 1.3785770860 -2.4396989118
H -0.6821742724 2.1253902727 -1.0400561345
H 0.9335217033 2.7235271409 -0.6096092966
H 0.2230909081 3.1285266641 -2.1867854740
H -0.6668702112 0.4371373391 -2.9168528166
