28
CONF4
O -1.7712719009 2.4575087266 -0.8035546469
C -2.4738480385 1.3551472732 -1.3508618589
C -2.1067903892 0.0274317505 -0.7156131599
O -0.7696707928 -0.3122314987 -1.1412540133
C -0.1325898080 -1.0931088961 -0.1484574168
C -0.9795422426 -1.0072021644 1.1346425153
C -2.0716765812 0.0144170634 0.8220944516
O -3.3130864862 -0.4157866059 1.3811389721
N 1.2670253115 -0.6482257993 -0.0216049092
C 2.2917887230 -1.4863848042 -0.3943160394
C 3.5942869976 -1.1436293016 -0.3347880371
C 3.9782042930 0.1734383637 0.1231295248
O 5.1090904071 0.6124906010 0.2250835066
N 2.8654673979 0.9759449490 0.4642223870
C 1.5268629167 0.6560137045 0.4075741527
O 0.6458760632 1.4447133955 0.7149369879
H -0.8554317135 2.1842757989 -0.6431603343
H -3.5430128120 1.5381100922 -1.1842467661
H -2.3165731973 1.2751935888 -2.4384753794
H -2.8120771380 -0.7497991973 -1.0538397625
H -0.0558545916 -2.1344266824 -0.4912829460
H -0.3823007329 -0.7362652296 2.0062793908
H -1.4537262840 -1.9747336291 1.3257097409
H -1.7951067081 1.0038315688 1.1959227742
H -3.8626069258 0.3618136695 1.5218693065
H 1.9754864281 -2.4642267461 -0.7427564221
H 4.3723098208 -1.8317274602 -0.6329232678
H 3.0687685817 1.9174180937 0.7745312492
