45
CONF35
C 1.9880970593 -0.7011357470 -3.7888998773
C 2.4980475416 -0.0106815086 -2.5322726119
C 1.3933832849 -0.0080855690 -1.4638298104
O 1.2449490949 -0.9274808169 -0.6662190028
N 0.5664359195 1.0677939549 -1.5064588548
C -0.5363523177 1.2073643271 -0.6069488713
C -1.7162107656 0.1736203555 -0.5974884488
N -1.4343016721 -0.0657770169 0.8217352402
C -0.3642460389 0.8169930341 0.8830844384
O 0.3499744589 1.1611558904 1.7946869070
C -2.5523527265 -0.2052979094 1.7225029201
C -3.6570089170 0.7870490725 1.1999942458
S -3.4656958681 0.7485628822 -0.6684270876
C -5.0805449090 0.3692233354 1.5536508502
C -3.3602479283 2.1879436437 1.7350469873
C -3.0292441254 -1.6496954524 1.7477069774
O -2.9536070065 -2.4152441389 0.8137441114
O -3.5620372669 -1.9615714283 2.9415778280
O 3.6225678243 -0.7612980816 -2.0804251607
C 4.3532172599 -0.2755439191 -1.0270785186
C 5.4232168449 -1.0804989343 -0.6235472926
C 6.2321386246 -0.6777990573 0.4299435724
C 5.9864670203 0.5252477308 1.0940063357
C 4.9206198035 1.3192442061 0.6861058753
C 4.0980168779 0.9311091578 -0.3723994046
H 1.1306544356 -0.1572741026 -4.1932869635
H 2.7790803978 -0.7230912852 -4.5425191858
H 1.6834360844 -1.7252309478 -3.5560295343
H 2.8038484269 1.0196331420 -2.7634158870
H -0.9227661325 2.2284527429 -0.6660811938
H -1.5796278051 -0.6927284937 -1.2485450398
H -2.2516546805 0.0929712465 2.7318041300
H -5.3295373975 -0.6180377782 1.1558197973
H -5.7909563603 1.0937470362 1.1460919783
H -5.1980953357 0.3555077663 2.6418962456
H -2.3366137351 2.5031909771 1.5147515919
H -4.0430688405 2.9121419762 1.2835257575
H -3.5014686027 2.2037209657 2.8220212953
H -3.8934096947 -2.8759298259 2.9024968649
H 5.6029866170 -2.0149384943 -1.1453639392
H 7.0598623238 -1.3102552812 0.7360902080
H 6.6184902491 0.8361659016 1.9190452114
H 4.7139097420 2.2567311901 1.1932139107
H 3.2750776408 1.5737472918 -0.6619977372
H 0.7523619259 1.8124126187 -2.1621982349
