68
CONF59
C 1.9300145802 -4.3525228011 -0.8540581672
C 0.9643470141 -3.5470039749 -1.7202439824
C 1.2637446018 -2.0286121910 -1.8047177886
C 0.1574359799 -1.3532358765 -2.6327904036
C 1.2770804814 -1.4650102787 -0.3849204282
O 0.0609564864 -1.5423806752 0.1882370311
C -0.0773829514 -1.1314726438 1.5889006486
C 0.0160136077 -2.3958591105 2.4259344057
C -0.1389704706 -2.0931740273 3.9149825014
C -1.3271427346 -1.2061527154 4.1285595893
C -1.9160512043 -0.4743369518 3.1651720243
C -3.0735279562 0.3590425366 3.4568389381
C -3.5444545239 1.2764590704 2.5982366990
C -2.8832613841 1.5962751259 1.2891322197
C -1.4377585502 1.0496991194 1.2647286989
C -1.4279692242 -0.4316468811 1.7273860196
C -0.7297509649 1.2762574213 -0.0735469978
C -0.6819087339 2.7414168212 -0.5091100845
C 0.0600599539 2.9095248228 -1.8256325483
C 1.5367814341 2.5706937248 -1.7749630718
C 2.1779824090 2.9038375500 -3.1103195183
C 2.0320186061 4.3997560949 -3.3619643717
C 0.6770460489 4.9865223444 -3.0344548386
O -0.1604263828 4.3128926482 -2.2238526263
O 0.3361420734 6.0845275046 -3.4280625635
O 3.5454362409 2.4941460234 -3.1903717320
C -3.7564170033 1.1275136284 0.1118367726
C -0.2464591040 -3.3831794672 4.7347661025
O 2.2575806960 -1.0120450041 0.1755749956
C 2.6200830810 -1.7658041957 -2.4631364552
H 1.9395360818 -3.9898396332 0.1800623488
H 1.6295630050 -5.4043363552 -0.8312758540
H 2.9542760622 -4.3076717996 -1.2351283278
H 0.9767733182 -3.9311000055 -2.7480937151
H -0.0574567966 -3.6747666686 -1.3456834583
H -0.8319766048 -1.5381096489 -2.2075088276
H 0.3147666653 -0.2712481422 -2.6922469233
H 0.1804603223 -1.7559881092 -3.6506836158
H 0.7414386633 -0.4471940159 1.8365781655
H 0.9760175703 -2.8880984696 2.2337950758
H -0.7823530117 -3.0820493945 2.1117734692
H 0.7612158709 -1.5562620634 4.2575119673
H -1.7331503097 -1.1561835941 5.1391748328
H -3.5616352349 0.2105054665 4.4182801193
H -4.4383024166 1.8438647639 2.8512876943
H -2.8237567937 2.6920943660 1.2256581907
H -0.8771684257 1.6123542576 2.0279013511
H -2.1469440773 -0.9926257359 1.1110792422
H -1.1993761592 0.6711071427 -0.8582920516
H 0.2984336228 0.9176235382 0.0217384451
H -1.6925750577 3.1402866559 -0.6460212704
H -0.1905734664 3.3513172095 0.2605025151
H -0.4285329958 2.3036369863 -2.6016940282
H 1.6526995411 1.5023620205 -1.5693102592
H 2.0261920950 3.1321415312 -0.9663680645
H 1.6692175690 2.3411122924 -3.9028258672
H 2.7388646460 4.9363017460 -2.7116143204
H 2.2763743455 4.6730256520 -4.3916337870
H 4.0329014140 2.9437740935 -2.4865130980
H -4.7736833523 1.5160657636 0.2236036606
H -3.8207665740 0.0354728631 0.0745453424
H -3.3655977932 1.4829329463 -0.8464437482
H -0.3219062440 -3.1607761859 5.8038736735
H 0.6332929116 -4.0151316903 4.5762527291
H -1.1360367991 -3.9509693737 4.4400301762
H 3.4444347721 -2.1911470644 -1.8875489560
H 2.6253100192 -2.2083329989 -3.4642443048
H 2.7987817226 -0.6902745378 -2.5600986950
