55
CONF27
C 1.1695162991 1.3531263545 0.7186415229
C 1.6531059797 1.4342391044 -0.7205260883
N 3.0790958194 1.1069922972 -0.8072504648
C 3.2941310178 -0.2395206952 -0.2636725373
C 2.8157333457 -0.3127512311 1.1772353561
N 1.3875484331 0.0083482283 1.2643587409
C 0.9236404477 -0.1037162066 2.6502523722
C -0.6099749817 -0.0677894590 2.7748816565
C -1.2256748119 -1.2308123852 2.0692758988
C -1.8942592950 -1.2412622980 0.9001457564
C -2.2567453292 -2.5185476203 0.2538163040
C -2.8236275211 -3.5801495846 0.9687006589
C -3.0857513696 -4.7989586397 0.3534929539
C -2.8024437782 -4.9716858428 -1.0006436860
C -2.2693377954 -3.9213496190 -1.7400049834
C -2.0018203577 -2.7029176125 -1.1142038223
S -1.2513349289 -1.4066849149 -2.0804190315
C -1.8921451766 0.0234707726 -1.2504772408
C -2.1987018576 -0.0254399314 0.1213924881
C -2.7798290130 1.1016056182 0.7040631597
C -2.9461953296 2.2742432901 -0.0282400581
C -2.5616710601 2.3370626248 -1.3663191862
C -2.0570818801 1.2002710688 -1.9825296067
C -3.5111646780 3.4699216889 0.6715121260
F -3.8283992472 4.4748768276 -0.1742914866
F -2.6334067184 3.9859887710 1.5796500935
F -4.6370079199 3.1676104965 1.3708407522
C 3.5760633127 1.2306601408 -2.1827040079
C 5.0927568153 1.3678895744 -2.1933466818
O 5.5070864384 2.4456911230 -1.3442780249
H 0.1004793562 1.5893739958 0.7346563388
H 1.6955644479 2.1178091225 1.3256965501
H 1.0477348204 0.7482211132 -1.3458765971
H 1.4978503353 2.4530025424 -1.0939755961
H 2.7563375732 -0.9960167438 -0.8689701662
H 4.3614996453 -0.4820561168 -0.2942846871
H 2.9741259953 -1.3289436272 1.5565663439
H 3.4234720564 0.3780517448 1.7961750882
H 1.2884784298 -1.0591832608 3.0480596129
H 1.3489784718 0.6987788850 3.2838308374
H -0.9908010569 0.8896926456 2.4177177968
H -0.8483402775 -0.1210462716 3.8447328262
H -0.9966285650 -2.2020341312 2.5085200482
H -3.0554964435 -3.4369272172 2.0197610707
H -3.5191392550 -5.6112015286 0.9279725616
H -3.0114812932 -5.9180354754 -1.4888291999
H -2.0627779922 -4.0447321608 -2.7986316438
H -3.0962557293 1.0578428849 1.7409086509
H -2.6832374848 3.2507824320 -1.9360748565
H -1.7999240683 1.2248891327 -3.0365450623
H 3.1407910432 2.1391086919 -2.6166848032
H 3.2726086521 0.3761915560 -2.8168425388
H 5.5757289706 0.4296113014 -1.8821578099
H 5.4322861075 1.5961966531 -3.2087890298
H 4.9160410359 2.3902118916 -0.5749938494
