53
CONF49
C 2.7264914034 3.3499842277 -0.3798373962
C 2.5285809208 1.8680190869 -0.7535368944
C 3.8883596621 1.2835843770 -1.1535169473
C 1.5843166549 1.8181485974 -1.9615177630
O 1.4157508183 0.4616052696 -2.3733874915
C 0.4129189820 0.3230015676 -3.3780270375
C -0.9854202587 0.5477377516 -2.8470907843
C -1.3473984022 -0.0036819119 -1.6179890308
C -2.6377789593 0.1864061839 -1.1363810737
C -3.5757184499 0.9245695568 -1.8533046784
C -3.2046379068 1.4791774046 -3.0737698113
C -1.9165673560 1.2934524936 -3.5715127985
O -3.0277780525 -0.2789232824 0.1083212387
C -2.6626365790 -1.5536875784 0.5037480779
C -2.4764849590 -1.7476653514 1.8691156209
C -2.1723919884 -3.0202878617 2.3420490018
C -2.0521151831 -4.0918041465 1.4596320735
C -2.2498010142 -3.8829170267 0.0958013886
C -2.5599031540 -2.6165786523 -0.3924327914
C 1.8866641616 1.1285503000 0.4221762886
C 2.4765071789 0.0112258663 1.0174951911
C 1.8885523124 -0.6338160855 2.1051451333
C 0.6971715051 -0.1368457831 2.6013200437
C 0.0596700383 0.9500053451 2.0233689152
C 0.6614761917 1.5736953545 0.9384774695
O 0.0416053083 -0.7762092892 3.6797540566
C 0.5584631624 -0.6571856716 4.9120711817
F 1.7986092155 -1.1859499401 5.0307749341
F -0.2491812861 -1.3137367889 5.7539933077
Br 0.6966835962 1.2448749877 5.5458466661
H 1.7777749965 3.8445178258 -0.1529808153
H 3.2019057388 3.8855525981 -1.2081793078
H 3.3733665710 3.4303986964 0.4990489989
H 3.8101784711 0.2388337858 -1.4635146959
H 4.6028470607 1.3528303271 -0.3270547319
H 4.2892967356 1.8566887352 -1.9954241534
H 0.6112209205 2.2606243177 -1.7016170490
H 2.0153679476 2.4066365480 -2.7886510393
H 0.5098460768 -0.7040408208 -3.7487180275
H 0.6064462732 1.0082920506 -4.2172832378
H -0.6214286937 -0.5640923339 -1.0375982448
H -4.5730420872 1.0597356193 -1.4484056325
H -3.9260480647 2.0625249069 -3.6374117123
H -1.6302518529 1.7344678921 -4.5219482451
H -2.5681335084 -0.9036080604 2.5438018412
H -2.0208379062 -3.1689868952 3.4066465039
H -1.8097308231 -5.0819763337 1.8309944392
H -2.1695284451 -4.7128206126 -0.5995296870
H -2.7205980746 -2.4572823447 -1.4531107442
H 3.4121121970 -0.3819712702 0.6393338451
H 2.3531019376 -1.5068275739 2.5481039717
H -0.8855824846 1.3005021096 2.4229248914
H 0.1577091552 2.4254959499 0.4937874349
