48
CONF28
C -5.3114766124 0.9582219670 -0.7972390328
C -3.7818200947 0.9171534495 -0.6388960161
C -3.3549750470 2.2156991077 0.0665465224
C -3.1243101483 0.8461724436 -2.0234741201
C -3.4307982436 -0.3263961086 0.2296007142
C -1.9479359199 -0.7503302242 0.1956125337
N -1.7336351850 -1.9230606436 1.0431287134
C -1.4408227734 -3.1885298721 0.6771605957
N -1.4108097166 -3.9772123642 1.7416576128
C -1.7064983811 -3.1162607119 2.7582686353
N -1.9181954068 -1.8621830152 2.3843597467
O -1.1536302738 0.3202006783 0.6497519712
C 0.2075182032 0.2972469021 0.4374582648
C 0.8846312581 -0.6553872359 -0.3215958149
C 2.2637950935 -0.5444289447 -0.4779989008
C 2.9910705572 0.4961584805 0.1085394524
C 2.2830412436 1.4395179328 0.8693619340
C 0.9110178637 1.3443938410 1.0350965172
C 4.4546250740 0.5964082437 -0.0633392043
C 5.0625163239 0.2462073827 -1.2778456396
C 6.4412192336 0.3377156353 -1.4374351378
C 7.2425490994 0.7838828221 -0.3883228666
C 6.6510601100 1.1368444617 0.8229738144
C 5.2726496752 1.0433253917 0.9845318315
O -4.1868163209 -1.4855012585 -0.1264201052
H -5.6873716771 0.1182470681 -1.3865096707
H -5.5957186882 1.8863839128 -1.3032523575
H -5.8048367176 0.9367047834 0.1808530650
H -3.7685651209 2.2617338104 1.0801255438
H -2.2708783259 2.3148266666 0.1317107080
H -3.7431472772 3.0715730091 -0.4957433402
H -2.0342050970 0.9320399170 -1.9573911983
H -3.3674197739 -0.0841631276 -2.5514867658
H -3.4841755679 1.6740937446 -2.6427384814
H -3.7014267343 -0.1113684768 1.2698121898
H -1.6835713847 -1.0591588337 -0.8240111524
H -1.2618127801 -3.4757341941 -0.3511517895
H -1.7650721144 -3.4170311319 3.7968012293
H 0.3740324576 -1.4877605494 -0.7884034171
H 2.7823056010 -1.3063131217 -1.0515816927
H 2.8107196769 2.2732954609 1.3217151479
H 0.3657937457 2.0813152590 1.6157716077
H 4.4472678535 -0.0788872501 -2.1113471142
H 6.8904506471 0.0686650288 -2.3886546609
H 8.3182342276 0.8562342048 -0.5138500236
H 7.2664333473 1.4777647427 1.6500385350
H 4.8272057890 1.2973434453 1.9415659405
H -4.0782096875 -1.6475654514 -1.0737547322
