45
CONF266
O -0.7100469917 -0.4066433243 -2.9174034060
C -1.9877617157 -0.9910317999 -2.6669706736
C -2.4263405692 -0.8966963417 -1.2232865715
O -1.4722949296 -1.6247301257 -0.3932903279
C -1.3322946463 -1.0026859044 0.8716740202
C -1.4558917021 -2.0662119121 1.9550749408
O -2.6977659007 -2.7540924937 1.8799133455
O -0.0488533646 -0.3602925068 1.0365758222
C 1.0520739063 -0.8642313392 0.3033649203
O 1.2563928224 -0.1290424149 -0.8954575204
C 1.5412331656 1.2802105377 -0.6956426840
C 1.5974935420 1.9359668546 -2.0653622854
O 0.3095940116 2.2098569417 -2.6101731207
C 2.8484140292 1.4062782013 0.0846070749
O 3.1038842883 2.7961348045 0.2853216847
C 2.7008070712 0.6824605153 1.4147508020
O 3.9587619695 0.7697851820 2.0873635735
C 2.2968951947 -0.7715779888 1.1909568647
O 2.1159574932 -1.4592865687 2.4252605069
C -2.3876945649 0.1192570121 0.9029136119
O -2.0966787555 1.1770491443 1.7872127442
C -2.4991350672 0.4872387285 -0.5814487726
O -3.6475461188 1.2328086053 -0.9398772283
H -0.0966000673 -0.6862030654 -2.2141109655
H -2.7184961590 -0.4611958829 -3.2870646538
H -1.9862398618 -2.0488757310 -2.9667697768
H -3.4114217963 -1.3839580800 -1.1364490018
H -1.4122413091 -1.5767451515 2.9331944077
H -0.6016169534 -2.7552560337 1.8694404708
H -2.7174945078 -3.2136619945 1.0296413857
H 0.8787810995 -1.8972875327 -0.0117138178
H 0.7290783645 1.7411697452 -0.1150798884
H 2.1974322945 1.3033262605 -2.7381510020
H 2.1035376659 2.8991819717 -1.9608084140
H -0.1350488236 1.3600300378 -2.7900385992
H 3.6646164597 0.9387766857 -0.4916431448
H 3.8590059533 2.8608267457 0.8852555204
H 1.9195519538 1.1940945775 2.0019731524
H 3.8666599534 0.3131480520 2.9342017061
H 3.1123101160 -1.2873233505 0.6710589729
H 1.3336650160 -1.0785760546 2.8515992442
H -3.3404810630 -0.3156423951 1.2317462489
H -1.1991833032 1.4813615337 1.5888358013
H -1.6338501452 1.0938158670 -0.8767442483
H -4.4311670335 0.7484700993 -0.6444505501
