56
CONF2
C 3.9001223353 2.8139982896 -0.7548317930
C 2.4352370222 2.7863652570 -0.3817022469
O 1.7468499737 2.0897728668 -1.4283896959
C 0.4190999749 1.8392689785 -1.2595469228
C -0.1708795692 1.0042509083 -2.2104656843
C -1.5151658226 0.6790670417 -2.1174026182
C -2.3260553262 1.1749061811 -1.0884983311
C -1.7184002527 2.0212677925 -0.1599444255
C -0.3676411273 2.3553172070 -0.2296356154
C -3.7822910246 0.7357132000 -0.9305959444
C -4.3762622703 0.2289600522 -2.2542472954
C -4.6710525401 1.8776705488 -0.4140393909
C -3.8275216733 -0.4475776146 0.0528189604
O -3.4766618542 -0.0127004565 1.3619322368
C -3.0956192287 -1.0903148806 2.2120117425
C -1.7438281883 -1.6650664808 1.8549730106
C -0.6595264103 -0.8011563797 1.7106132082
C 0.5922542027 -1.3092244220 1.3895134672
C 0.7855139937 -2.6791896464 1.2079602564
C -0.3026130401 -3.5325516067 1.3446890097
C -1.5635926726 -3.0340728457 1.6629382773
O 1.6307112508 -0.3991280491 1.3443497878
C 2.7362145020 -0.6785704918 0.5618559047
C 2.6052560007 -1.0211362927 -0.7811399717
C 3.7514665439 -1.2180988226 -1.5413600005
C 5.0147641506 -1.0704636068 -0.9716027527
C 5.1286711071 -0.7175870947 0.3698787395
C 3.9886381406 -0.5218809428 1.1446853655
H 4.4732415449 3.3210660896 0.0271087530
H 4.0479802708 3.3481604475 -1.6974587633
H 4.2832030089 1.7957533321 -0.8630808128
H 2.0317806281 3.8054939783 -0.2867624703
H 2.2787724855 2.2587522108 0.5700853260
H 0.4433238240 0.6203587753 -3.0187853462
H -1.9297969483 0.0209986041 -2.8723748285
H -2.2996670321 2.4226985725 0.6613077033
H 0.0548423857 3.0076334949 0.5249076721
H -4.2608413626 0.9798638009 -3.0416524070
H -3.9057957653 -0.6994946789 -2.5924946277
H -5.4446155762 0.0279143617 -2.1291037283
H -4.3731296534 2.2159028285 0.5790912378
H -5.7100211919 1.5378429230 -0.3448044208
H -4.6300591003 2.7287575626 -1.1009908730
H -3.1268532032 -1.2224805487 -0.2954581845
H -4.8444234832 -0.8794993698 0.0714793954
H -3.8579252397 -1.8860935868 2.1991510980
H -3.0687623846 -0.6667388960 3.2225290175
H -0.7845106116 0.2691696356 1.8285081308
H 1.7690900036 -3.0660980009 0.9671553138
H -0.1614274996 -4.5992733845 1.2017015731
H -2.4083755530 -3.7095753253 1.7613618800
H 1.6157430569 -1.1123421612 -1.2160849223
H 3.6558453266 -1.4753154732 -2.5913917662
H 5.9046316161 -1.2232781713 -1.5727781999
H 6.1086103294 -0.5963845832 0.8204264898
H 4.0532749917 -0.2502126637 2.1928049630
