111
CONF118
C 3.0705603579 -1.0028001052 1.5573921150
N 2.1803449193 -1.9308141120 2.2739989715
C 2.6759656448 -3.2013120112 2.7655420055
C 0.9157624312 -1.8169055589 1.7159968197
C -0.1539174171 -2.7051178349 1.7941680269
C -1.3440230429 -2.3502840227 1.1440777968
O -2.4451850934 -3.1610957835 1.1378305985
C -2.3503813840 -4.4456239667 1.7609746812
C -1.4771559600 -1.1455406342 0.4279144789
C -0.3741681699 -0.2826453028 0.3868931934
C 0.8047639024 -0.6113680499 1.0163554838
C 2.0958265494 0.1529756891 1.1890071014
C 1.9891890589 1.1532207285 2.4006711025
C 2.3845827180 2.5111432670 1.8189308508
N 3.2541469522 2.1544259135 0.6978717955
C 3.5197646109 3.2690261821 -0.1992100414
C 4.1336860386 2.7871539888 -1.4750115810
C 4.0820573490 1.5149631107 -1.8645488260
C 3.3193286514 0.4352351423 -1.1284714502
C 2.2878685288 -0.1709386527 -2.1303707591
C 2.8477356137 -0.9370475897 -3.3266092720
C 4.3380347458 -0.6142007553 -0.6325262283
O 5.3989020365 0.0858168409 0.0622734142
C 6.6795333811 -0.2139251677 -0.2548444942
C 7.6249410442 0.6340270262 0.5380199190
O 6.9975111784 -1.0450712198 -1.0815473550
C 3.7580770686 -1.6806823469 0.3423585344
O 2.8078256842 -2.4822110433 -0.3361824284
C 4.9550251582 -2.5290915199 0.8203060508
O 5.6752565081 -2.2554434535 1.7565644176
O 5.1367009486 -3.5860357511 0.0162060681
C 6.2949125325 -4.4097372527 0.3094477505
C 2.5261456320 1.0699710040 0.0274572800
C -2.8030797127 -0.8170004449 -0.2653898803
C -3.9294985977 -0.5435586800 0.7596537222
C -3.6270654644 0.4620018556 1.9012283420
C -2.8961293214 1.7628820988 1.5381906482
N -3.7240011736 2.7494257779 0.8390909058
C -4.8286178268 3.1539376643 1.7168946780
C -5.5021834744 2.0211351111 2.4647392295
C -6.8343380235 2.3413274723 3.0879506058
C -7.9772278396 2.3417509342 2.0616844236
C -4.9328217135 0.8140355259 2.5640348199
C -4.2540733731 2.2477443611 -0.4534291266
C -3.2170966566 1.5989940505 -1.3168802656
C -2.6476283142 0.3347472223 -1.2445575988
N -1.7452218432 0.1915669868 -2.2834470643
C -1.6799705864 1.3450120350 -3.0171180405
C -0.9026431157 1.6659219634 -4.1297380539
C -1.0495711322 2.9404602441 -4.6612773547
C -1.9506592056 3.8656194050 -4.1000441197
C -2.7246549645 3.5380047709 -2.9956073280
C -2.5963919333 2.2591795918 -2.4331457411
C -3.1688929083 -2.0179369148 -1.1760826277
O -2.3598314943 -2.6154840680 -1.8583025359
O -4.4824242640 -2.2706310490 -1.1986128384
C -4.8961905395 -3.3419602769 -2.0841226917
H 3.8702111392 -0.6485873404 2.2122209764
H 2.8564163640 -3.9314132893 1.9589900850
H 1.9479877543 -3.6324123680 3.4594652631
H 3.6074223264 -3.0402223043 3.3140572203
H -0.0598562354 -3.6495694883 2.3131864971
H -3.3211581586 -4.9186663752 1.6082898486
H -1.5659478794 -5.0526340650 1.2939336006
H -2.1539795710 -4.3491986328 2.8351992640
H -0.4428597905 0.6455396766 -0.1700678819
H 2.6731880457 0.8532253158 3.1989602777
H 0.9764349753 1.1661239520 2.8097333334
H 2.9070721557 3.1560433216 2.5338932265
H 1.4857455421 3.0523935257 1.4612277817
H 4.1946458820 3.9802093888 0.2959691123
H 2.5896132404 3.8339640014 -0.4303877521
H 4.6375659720 3.5274575310 -2.0917926833
H 4.5720506286 1.2136410358 -2.7876491278
H 1.7029971200 0.6814248048 -2.4996818470
H 1.5954539763 -0.8111611549 -1.5795673054
H 3.3686247515 -1.8524021545 -3.0320486238
H 2.0232984613 -1.2322227631 -3.9834543360
H 3.5386953820 -0.3337393926 -3.9229004143
H 4.7724436254 -1.1392611372 -1.4886353332
H 7.3477567694 0.6217112368 1.5949218758
H 8.6451941899 0.2767849418 0.4042706889
H 7.5492950052 1.6692153893 0.1883547704
H 3.2829818955 -3.0662841348 -0.9435782966
H 7.2030674317 -3.8080556402 0.2297711989
H 6.2837538513 -5.1985142426 -0.4408253809
H 6.2077295758 -4.8272860117 1.3148697912
H 1.5978189690 1.4868712867 -0.4200714192
H -4.8241249219 -0.2395204889 0.2161786056
H -4.1772049040 -1.4954516751 1.2347054255
H -2.9893074907 -0.0660562164 2.6254977484
H -2.0004298773 1.5655212739 0.9502433080
H -2.5641022950 2.2311511472 2.4744505983
H -4.4508779866 3.8762024150 2.4594227725
H -5.5696599247 3.7001734864 1.1183033651
H -7.0544587694 1.6107720642 3.8744959338
H -6.7832618170 3.3280246608 3.5693940097
H -8.0846260190 1.3496561465 1.6114859621
H -8.9266711004 2.6079132549 2.5370001480
H -7.7933268846 3.0591920872 1.2556517738
H -5.4510126017 0.0222654675 3.1070849337
H -4.6467841683 3.1164541550 -0.9958825539
H -5.1134315929 1.5767512749 -0.3003986333
H -1.2005508819 -0.6429735987 -2.4419905374
H -0.2090625843 0.9488846858 -4.5583289205
H -0.4585250033 3.2290084899 -5.5248612200
H -2.0377670479 4.8537266238 -4.5412538735
H -3.4130857999 4.2641520268 -2.5732778512
H -4.6295949143 -3.1004786640 -3.1156567438
H -4.4179243941 -4.2781174875 -1.7864862919
H -5.9772791208 -3.4074691052 -1.9693616726
