42
CONF159
C -2.3380580572 -0.5117158923 0.9778983939
C -3.3896781453 -0.0300537709 -0.0310440481
C -2.8160777237 0.7580724028 -1.2157355591
C -2.2159855607 2.1108318898 -0.8195590724
C -1.3224887945 2.7271406643 -1.9015737317
C 0.0189649263 2.0073698678 -2.0526516066
C 0.9032078014 2.1519356219 -0.8393584177
O 0.8728066193 3.0718912599 -0.0474787384
O 1.7871479573 1.1327387271 -0.7494336235
C 2.7391459213 1.2194403175 0.3435899913
C 3.7101885461 0.0773690636 0.1950594880
O 3.0469437068 -1.2029659457 0.3408057980
C 2.8511271610 -1.6531183762 1.6024103077
O 3.2515037306 -1.0701417163 2.5897619779
C 2.0860429651 -2.9517331764 1.6002412803
C 0.7805087250 -2.8634036001 0.7980799268
C -0.1776156737 -1.8074076252 1.3485214811
C -1.3508955360 -1.5323811150 0.4101666145
H -2.8491983646 -0.9545566480 1.8425338432
H -1.7757775204 0.3461069189 1.3697513727
H -4.1253210271 0.5973714843 0.4902236009
H -3.9388811367 -0.9016137543 -0.4119289304
H -2.0609500804 0.1471798330 -1.7237028680
H -3.6094700039 0.9274921312 -1.9550049950
H -1.6277559357 2.0098758480 0.1001383357
H -3.0318561699 2.8048368692 -0.5821112405
H -1.8394517865 2.7021539573 -2.8686262618
H -1.1302208228 3.7798513665 -1.6695599829
H -0.1029569269 0.9436081973 -2.2769529269
H 0.5866160929 2.4318060271 -2.8922091234
H 3.2787205386 2.1706861961 0.2863617514
H 2.2014283456 1.1719507581 1.2952349302
H 4.5047541579 0.1760678461 0.9396264987
H 4.1410136849 0.0598790345 -0.8081498083
H 2.7383697313 -3.7227260005 1.1718175791
H 1.8909535401 -3.2146435273 2.6431776520
H 1.0152354360 -2.6369852247 -0.2478118563
H 0.2968103258 -3.8469344695 0.8106400554
H -0.5441514497 -2.1195075567 2.3360787816
H 0.3652664980 -0.8628930771 1.5053176309
H -1.8796245103 -2.4695968592 0.1858808875
H -0.9403407885 -1.1732776135 -0.5423736903
