70
CONF94
C -1.8425405747 -1.4151437180 -1.4738740486
C -3.0866156688 -1.2655236849 -2.3746944581
C -4.2834213544 -1.7372221022 -1.6156102821
C -5.5040438225 -2.2690496096 -1.9491049089
N -6.2459426682 -2.4719053167 -0.7884610698
C -5.5086631520 -2.0781287514 0.3045754771
C -5.7568728611 -2.0695916899 1.6789705972
C -4.7331604595 -1.5940275336 2.4947931950
C -3.4948858729 -1.1433284267 1.9855471155
C -3.2467474863 -1.1450987426 0.6163597683
C -4.2749960210 -1.6162350537 -0.2007091514
C -1.9770262078 -0.7069806901 -0.0893826216
C -0.7298334772 -0.9950884575 0.7566684256
C 0.5444888418 -0.6107588593 0.0014597156
C 0.5653928042 -1.3436023232 -1.3696236589
N -0.6057221511 -1.0491220243 -2.1881452256
C -0.5616466897 0.3069865244 -2.7612528409
C 0.5765750661 0.4384001244 -3.7300543749
C 1.4690914806 1.4258653679 -3.7119232465
C 1.7878689009 -1.0302988024 0.7571781091
O 1.8048103719 -2.1406890293 1.3017487608
N 2.8863341303 -0.1834840187 0.7467656811
C 2.7884828246 1.1668786402 0.1536275787
C 2.1786565124 2.1796132048 1.1242996822
C 1.7914691558 3.4779017582 0.4212596828
N 0.6684939271 3.3032580813 -0.5121084810
C -0.6051460445 3.1830785382 0.2004023383
C 0.5968787797 4.4330418385 -1.4400987172
C 4.1231731587 -0.4367254028 1.4475392791
O 4.9562171578 0.4650339781 1.5394434769
N 4.3052563356 -1.6783270139 1.9327248446
C 5.4707024299 -1.9996836804 2.7521009563
C 5.2991096348 -1.5820849589 4.2106728125
H -1.7433217688 -2.4909381500 -1.2539557126
H -3.2312493361 -0.2116709388 -2.6447152089
H -2.9282881222 -1.8214312559 -3.3052647220
H -5.9246699038 -2.5241102360 -2.9120033487
H -7.1726827573 -2.8641926724 -0.7619065319
H -6.6950467163 -2.4172503536 2.0996021074
H -4.8898405712 -1.5739329394 3.5692998726
H -2.7421249408 -0.7975170801 2.6869158505
H -2.0396787439 0.3781183101 -0.2721227503
H -0.7735798009 -0.4410255820 1.7008576997
H -0.7056002098 -2.0631144397 1.0033105828
H 0.5216082626 0.4645965156 -0.1782472422
H 1.4688999508 -1.0751752504 -1.9285630252
H 0.5954926624 -2.4238049798 -1.1740095439
H -1.4903031778 0.4655558426 -3.3203419327
H -0.4992948406 1.1122467530 -2.0079954089
H 0.6295046654 -0.3363369894 -4.4957384059
H 1.4350976211 2.1937136459 -2.9424819433
H 2.2533881732 1.4950729046 -4.4598135305
H 2.2117063757 1.1091885289 -0.7697690059
H 3.7993145832 1.4740965002 -0.1164593311
H 1.3065456491 1.7382618212 1.6213515936
H 2.9056086225 2.4007915992 1.9130995349
H 2.6542235755 3.8363928049 -0.1553609632
H 1.5643639708 4.2572453519 1.1744168878
H -0.5854012870 2.3404918828 0.8978715295
H -1.4113909164 3.0013128860 -0.5185814266
H -0.8500738656 4.0981924998 0.7737771328
H 1.5312623421 4.5133867236 -2.0056842786
H -0.2230464712 4.2762550244 -2.1497538461
H 0.4224248092 5.3958876805 -0.9219640488
H 3.5031830737 -2.3016756406 1.9046116670
H 5.6229519382 -3.0812321387 2.6813206081
H 6.3460424405 -1.5101327565 2.3158463379
H 6.1905201310 -1.8504853160 4.7863567180
H 4.4357192120 -2.0839439199 4.6581247035
H 5.1519968934 -0.5007950981 4.2868756793
