65
CONF619
C 1.0268924382 3.8478411919 -0.3415451047
C 1.2726589178 2.4105196214 0.1081658227
C 1.3131458250 2.2409370611 1.6432999948
C 2.4253380058 3.0513861379 2.3027826334
C 1.4785169797 0.7643935637 1.9354250247
O 2.5303545093 0.2142705759 2.2015741608
O 0.3017810062 0.1197937478 1.8259060852
C 0.2880942877 -1.3232449969 2.0755997484
C 0.2207820387 -1.5997738186 3.5706612761
C -1.0315212020 -1.0198958806 4.2506869963
C -2.2221852096 -1.0621610296 3.3443013690
C -2.2073919635 -1.4294030441 2.0486962342
C -0.9352288444 -1.8743437389 1.3490701058
C -0.9711265845 -1.5419523414 -0.1605152023
C -2.2360322227 -2.1450561679 -0.8137257176
C -3.4637795653 -1.7793992587 -0.0317188482
C -3.4308819367 -1.4435750379 1.2670011691
C -2.1824403292 -3.6711097295 -1.0142869459
C 0.3270574775 -1.9723020180 -0.8628335292
C 0.3548393901 -1.7385337140 -2.3780204669
C 0.4496396541 -0.2756842614 -2.7758815582
C 0.1777737773 -0.0303169118 -4.2455403650
C 0.5080682736 1.4053045182 -4.6117782096
C 1.9864682887 1.6482223377 -4.3448734263
C 2.4928681004 1.1188542570 -3.0251013459
O 3.5515310288 1.4832641670 -2.5477642159
O 1.8053363312 0.1594276127 -2.3850676583
O -0.3143927648 2.2520225993 -3.7917064890
C -0.8199984511 0.4005926287 4.8070554550
H 0.1017470926 4.2438119869 0.0921621293
H 1.8488941561 4.5097792247 -0.0544231880
H 0.9333457527 3.8893804221 -1.4317548291
H 0.4830168859 1.7642761870 -0.2923958059
H 2.2205306422 2.0480547301 -0.3064203074
H 0.3383665704 2.5465167716 2.0445292085
H 3.3938720066 2.8207039898 1.8486974733
H 2.2356131299 4.1213430523 2.1888139558
H 2.4877965979 2.8297392404 3.3721291536
H 1.2094312860 -1.7456587747 1.6682290567
H 0.2259845796 -2.6909983624 3.6796880461
H 1.1268924638 -1.2252057095 4.0572643884
H -1.2561634682 -1.6572310351 5.1191892796
H -3.1719677680 -0.7537253881 3.7825593873
H -0.8610803032 -2.9690638340 1.4417210701
H -1.0728168662 -0.4512002253 -0.2434596424
H -2.3447334167 -1.6922576694 -1.8090185469
H -4.4162976277 -1.8161654507 -0.5570941143
H -4.3514267544 -1.1827172155 1.7865813246
H -1.3699220116 -3.9658744293 -1.6851473390
H -2.0479289108 -4.1895333721 -0.0595856005
H -3.1225937263 -4.0225928215 -1.4513339168
H 1.1743112136 -1.4327635893 -0.4251216042
H 0.5049951309 -3.0365533873 -0.6631818755
H 1.2123574263 -2.2617428412 -2.8182785242
H -0.5387782353 -2.1548436070 -2.8548127180
H -0.2305440501 0.3355457803 -2.1730800587
H 0.7770092004 -0.7091579717 -4.8640590822
H -0.8795387088 -0.2398360925 -4.4368543194
H 0.2923984073 1.5875927388 -5.6732833091
H 2.5832612481 1.1443356437 -5.1173838848
H 2.2418564944 2.7108356233 -4.3987443734
H -0.1165313383 3.1693248052 -4.0187507409
H 0.0159986822 0.4119191989 5.5143979579
H -1.7170063723 0.7425349184 5.3339975159
H -0.6065159508 1.1113501063 4.0043571481
