50
CONF13
C 1.1100601795 -0.7101657819 -0.1438773323
C 2.5508858000 -1.3007351976 -0.2828835894
C 3.4833108087 -0.1693570822 -0.5893011970
C 4.6888660464 -0.0460212608 -1.2377523897
N 5.0929407764 1.2854597592 -1.2061469188
C 4.1503954506 2.0380209671 -0.5429861501
C 4.0497560917 3.3915465686 -0.2116192262
C 2.9155271291 3.7828649114 0.5008562739
C 1.9000005460 2.8822874621 0.8819301145
C 2.0002155399 1.5314153910 0.5536600886
C 3.1363544244 1.1385768450 -0.1610033393
C 1.0729483538 0.4342709309 0.8643931326
C 0.3079889500 0.4016748183 1.9655499489
C -0.5456872597 -0.7767053447 2.3351256111
C -0.0839206073 -2.0121239714 1.5543462888
N 0.0488393537 -1.6803759479 0.1351330192
C 0.0744892725 -2.8597832447 -0.7249785311
C -2.0292989166 -0.4157037639 2.1287825818
O -2.7401082469 -0.0476384842 3.0701603956
N -2.4437339965 -0.4942491813 0.8500169469
C -3.7810217835 -0.1331661132 0.3904928862
C -3.6927202225 0.4622533402 -1.0160643620
C -2.8403275902 1.7281757507 -1.0791008431
C -4.7108737669 -1.3494627310 0.4599983180
O -4.2589500322 -2.4396975521 -0.3525053826
H 0.8766163176 -0.2647217869 -1.1254913334
H 2.8319591040 -1.7987733435 0.6552041274
H 2.5656741094 -2.0551525112 -1.0746305237
H 5.3084632270 -0.7872034491 -1.7235286000
H 5.9451664026 1.6349991927 -1.6125447863
H 4.8108037873 4.1130001015 -0.4908119185
H 2.8048434873 4.8302996427 0.7649480516
H 1.0314936280 3.2555405754 1.4164903570
H 0.3128508130 1.2466681608 2.6505363187
H -0.4436898233 -0.9711679346 3.4080206805
H -0.8212261459 -2.8176184849 1.6496956439
H 0.8615934109 -2.3761723321 1.9942986044
H 0.8931046833 -3.5600533860 -0.4881222648
H 0.1765506262 -2.5492335733 -1.7703802872
H -0.8732834573 -3.3991982693 -0.6182116165
H -1.7364981142 -0.8117232809 0.1795296381
H -4.1777792692 0.6209787161 1.0836003584
H -3.2948046779 -0.2976680186 -1.7003043761
H -4.7138387228 0.6810971045 -1.3496173330
H -2.8404676560 2.1470603296 -2.0898443901
H -1.8007251513 1.5243321580 -0.8017049407
H -3.2254269997 2.4924974897 -0.3951283730
H -5.7005702611 -1.0734295881 0.0815761085
H -4.8149100430 -1.6666580356 1.5073745840
H -3.4318350619 -2.7590610990 0.0318207279
