46
CONF692
C 3.9843327098 0.7174796908 -0.3716940857
C 4.1143358216 -0.7911069268 -0.4579467897
O 3.6162267356 -1.4766266560 0.6817962771
C 2.1949876813 -1.6029394483 0.7316789321
C 1.8748573853 -2.5546171538 1.8750417171
O 0.4652953668 -2.6262255713 2.0710204420
C -0.0478239617 -1.6076309885 2.9179544837
C -1.4932629156 -1.3664257556 2.5598530160
O -1.5144892763 -0.6392937264 1.3325396596
C -2.7218489583 -0.4483533790 0.7322218472
C -3.9479552618 -0.8375934853 1.2584247750
C -5.1280214341 -0.6077162237 0.5454378207
C -5.0816468596 0.0093332224 -0.6920113139
C -3.8557492423 0.4138767549 -1.2280293505
C -2.6766364985 0.1994000730 -0.5246072324
O -1.4336988786 0.5642231296 -0.9456287056
C -1.3140642903 1.1490879426 -2.2457660449
C 0.1361067705 1.5316760020 -2.4663861262
O 0.4876724796 2.7679361013 -1.8487987303
C 0.8698080792 2.6958588660 -0.4743538197
C 2.3507695889 2.4401020388 -0.2868265277
O 2.6266168872 1.0773331279 -0.5841838806
H 4.6317912719 1.1890415200 -1.1328861767
H 4.3222072795 1.0548976988 0.6225096726
H 3.6192054124 -1.1489082405 -1.3757325625
H 5.1789161711 -1.0452101742 -0.5193045676
H 1.8068409338 -2.0104333198 -0.2148917318
H 1.7095976215 -0.6323683507 0.8937948530
H 2.2169434685 -3.5671064583 1.6385867953
H 2.3922428502 -2.2286050639 2.7904792445
H 0.5106568609 -0.6667943535 2.8049334486
H 0.0167527940 -1.9215466033 3.9736400806
H -2.0081401211 -2.3306322958 2.4454042633
H -1.9880755970 -0.7878682476 3.3550665855
H -3.9978551982 -1.3247635614 2.2243578100
H -6.0757953230 -0.9200262539 0.9703584277
H -5.9921668359 0.1856763871 -1.2543179361
H -3.8330645655 0.8955998826 -2.1975652692
H -1.6303658752 0.4186427802 -3.0074865606
H -1.9447153686 2.0458085870 -2.3256987015
H 0.7946052715 0.7171367591 -2.1405448683
H 0.2830727606 1.6886307176 -3.5414083587
H 0.6343568016 3.6779763269 -0.0472995944
H 0.2887017916 1.9350839492 0.0625172690
H 2.9349166417 3.1073143697 -0.9424890261
H 2.6235607238 2.6606773102 0.7611838288
