44
CONF25
C -4.5583092553 1.7401602527 2.2887419184
N -3.4071389188 1.4297074024 1.4324197161
C -3.7599713403 1.4780523069 -0.0047445455
C -4.5680669407 0.1765007691 -0.2694159084
C -4.0348687985 -0.8116980325 0.8000941810
C -2.9759354894 0.0206252415 1.5767773220
C -1.5837195805 -0.1042089406 0.9444162014
C -1.6583466128 0.2327448381 -0.5416232428
C -2.4485618123 1.5071384402 -0.8014624314
O -0.3079477673 0.4522460235 -1.0681886586
C 0.4046005465 -0.6336593137 -1.4111899148
O -0.0182441742 -1.7720411957 -1.3862307688
C 1.8275249852 -0.2467021640 -1.7774446719
C 2.3914745290 -1.1870239313 -2.8474914147
O 1.6370188556 -1.1323529576 -4.0594403177
C 2.6794670862 -0.2659661807 -0.5206583607
C 3.3839881716 0.8757086232 -0.1315470808
C 4.1889421327 0.8573285130 1.0048568505
C 4.2968360389 -0.3037367445 1.7666305182
C 3.5953178749 -1.4458655654 1.3856496172
C 2.7910824574 -1.4283129625 0.2495344203
H -5.4339945219 1.0897376084 2.1242540323
H -4.2606082282 1.6474443757 3.3384012414
H -4.8680386549 2.7755693442 2.1125981992
H -4.3386402814 2.3823004638 -0.2182529036
H -5.6382479687 0.3575267076 -0.1386271957
H -4.4218764252 -0.1863621897 -1.2912483925
H -3.5938683627 -1.7120340892 0.3616282441
H -4.8354966669 -1.1357231543 1.4702741048
H -2.9238943295 -0.2488659743 2.6364376749
H -1.1935924646 -1.1186407504 1.0797911315
H -0.9021896376 0.5976903419 1.4387674172
H -2.0906655122 -0.6042996995 -1.0971596935
H -1.8592842024 2.3742224477 -0.4825671105
H -2.6539311902 1.6054103957 -1.8731846246
H 3.4450822175 -0.9294142160 -3.0207499029
H 2.3397699342 -2.2217084848 -2.4976935188
H 4.7308032003 1.7522168922 1.2953048068
H 4.9230284672 -0.3185508124 2.6532163559
H 3.6728839777 -2.3541576819 1.9753676435
H 2.2420175590 -2.3205922326 -0.0359441208
H 3.3006695106 1.7831548112 -0.7230409421
H 1.8154921155 0.7752973872 -2.1703021127
H 1.7844708222 -0.2666939648 -4.4611331678
