50
CONF24
C 4.8852243717 0.6984460660 -1.3841918602
C 4.0323533238 -0.5027079215 -0.9808965566
C 3.1432701667 -0.2368889529 0.2391166710
C 2.1452085382 0.9300078021 0.0885607887
C 1.3647217481 0.9763832735 1.4056346784
C 0.3752494656 -0.2237521798 1.3999110313
C -1.0081566923 0.3011679294 0.9888820360
N -2.2078662186 -0.4866654816 1.3426485514
C -2.4879791268 -0.6461558803 2.7645048826
C -3.2232499897 0.0450335571 0.5348959053
C -4.6017764533 -0.0288647068 0.7249324697
C -5.4346349067 0.5390646073 -0.2441119605
C -4.9101171961 1.1609530995 -1.3746409226
C -3.5223272921 1.2305394493 -1.5589790131
C -2.6819673875 0.7004418728 -0.5939461468
C -1.1927662783 0.5009041126 -0.5354192045
C -0.7841786875 -0.7956857135 -1.2573837815
C 0.6918213051 -0.8391147458 -0.9272303852
C 1.1713178477 0.6410745538 -1.0732725376
C -0.1332446008 1.4921656737 -1.0625045439
O -0.3944023338 1.9107837857 -2.4117306261
N 0.8666953222 -1.2881295542 0.4771032229
C 2.3237671142 -1.5031778223 0.6478634361
O 2.6201258472 -1.9798995261 1.9548485907
H 5.4750890500 1.0621975420 -0.5350809702
H 4.2674128363 1.5278678490 -1.7428681248
H 5.5790366519 0.4312952522 -2.1873186705
H 3.4199205620 -0.8223166957 -1.8329776970
H 4.6855816814 -1.3516347563 -0.7399133606
H 3.8101110116 0.0202692738 1.0750980774
H 2.6777879201 1.8718237849 -0.0757066495
H 2.0614671414 0.9079961382 2.2490202402
H 0.8300044464 1.9213841501 1.5322023362
H 0.3100637821 -0.6530111382 2.4045257203
H -1.1162737545 1.2917912477 1.4708999908
H -1.6330426823 -1.1124868255 3.2594385537
H -2.7008695571 0.3188300388 3.2551022540
H -3.3476647727 -1.3071211500 2.9023981052
H -5.0290026651 -0.5103002766 1.5980433628
H -6.5109303208 0.4941789081 -0.1055531426
H -5.5755982046 1.5933610190 -2.1148607131
H -3.1209757146 1.6980978202 -2.4523453747
H -0.9464372518 -0.6731258058 -2.3331422267
H -1.3276734731 -1.6751399583 -0.9053279040
H 1.2486524993 -1.5283676029 -1.5700586762
H 1.6698525708 0.7988860893 -2.0343594171
H -0.0511644036 2.3780342018 -0.4206961956
H -1.0622318074 2.6067416347 -2.3771227270
H 2.5794839926 -2.3329414144 -0.0243474789
H 2.7703124639 -1.2272317113 2.5403564549
