47
CONF11
C 5.1301830605 -1.3575460687 -1.4314173561
C 3.8697862312 -0.7929989668 -0.8477275457
C 2.7719913047 -1.6478023066 -0.5337837222
C 2.8662744756 -3.1156975385 -0.8101008303
C 1.6094439821 -1.1302285049 0.0196775023
C 1.4848638789 0.2402377362 0.2732910968
N 0.3519448767 0.8025077259 0.8322631471
C -0.7383441139 -0.0505957291 1.3521010085
C -1.9057768530 -0.2267778556 0.3683963511
O -2.8763076130 0.8073182378 0.5589786257
C -2.5942455673 -1.5815853044 0.6049730312
O -1.6109063945 -2.6218967173 0.5464631672
C -3.7145128114 -1.9538433796 -0.3884330024
O -3.1396202248 -2.1938948234 -1.6801794728
C -4.9048222628 -1.0016056862 -0.5194279612
O -4.6082011597 0.1144040591 -1.3616093454
C 0.2211932242 2.1626278458 0.9186295717
N -0.9436751107 2.6614709192 1.2969769849
C -1.0792027210 4.0169017578 1.4404350428
O -2.1366995747 4.5453180247 1.7681103169
N 0.0444033438 4.8279416689 1.2014357466
C 1.2864438455 4.4177271928 0.7751426001
O 2.2055815037 5.1974822042 0.5738180252
C 1.3812802019 2.9471496951 0.5875627571
N 2.4965822338 2.4456948621 0.1279163870
C 2.5644833581 1.1062447435 -0.0650190470
C 3.7419149542 0.5572380567 -0.6126281744
H 4.9308789558 -1.8677637326 -2.3802971017
H 5.5764560032 -2.0989713774 -0.7594293639
H 5.8621131534 -0.5679587597 -1.6104522223
H 3.7078449584 -3.5585598458 -0.2652587504
H 3.0519288249 -3.2985621384 -1.8746118858
H 1.9505749565 -3.6335868114 -0.5199945559
H 0.7896202426 -1.8079597472 0.2235356675
H -0.3047936382 -1.0143414224 1.6069879966
H -1.1079783275 0.4130024743 2.2708407956
H -1.5095621474 -0.2065867480 -0.6613861071
H -2.3800816842 1.6198314126 0.8177485645
H -3.0108129593 -1.5868509203 1.6209042268
H -1.4944105266 -2.8192913170 -0.3966343491
H -4.0984416662 -2.9197595169 -0.0345808018
H -3.2144548161 -1.3529460306 -2.1601459500
H -5.2447454904 -0.6827204583 0.4751047452
H -5.7207856388 -1.5449262846 -1.0063765139
H -4.0157261454 0.6838116447 -0.8314777715
H -0.0896366629 5.8234124262 1.3384493199
H 4.5479571275 1.2449356956 -0.8487701539
