55
CONF113
C 4.7663552517 -4.4023436217 -2.3999120644
O 3.5043633451 -3.7717899217 -2.6545259227
C 2.9377957719 -3.0638230590 -1.6388395419
C 1.7061970236 -2.4629319280 -1.9296567584
C 1.0484274801 -1.7214671631 -0.9638667548
C 1.5980117758 -1.5542725243 0.3140824656
C 2.8180551062 -2.1682322308 0.5923016859
C 3.4962373251 -2.9180020921 -0.3669690758
C 0.9383879831 -0.7212258662 1.3812190668
S -0.8452766588 -1.2353401240 1.5266098820
C -1.6370482654 0.2075916088 2.2136599841
C -2.2657110927 0.0874224072 3.4568226326
C -2.9958267411 1.1419807089 3.9913189093
C -3.0758388120 2.3450933269 3.2954690953
C -2.4384750001 2.4859671943 2.0694192981
C -1.7244355997 1.4237203808 1.5074677731
N -1.1313515527 1.5924573817 0.2281969520
C -1.9399833464 2.2112878037 -0.8417738792
C -3.2774555176 1.5170278492 -1.0657692724
N -3.1602243873 0.0932617144 -1.3696696688
C -4.4866483470 -0.5239910290 -1.3817678740
C -2.4840527040 -0.1424949786 -2.6460055237
C 0.1786417016 1.2946842155 -0.0308516091
O 0.7003610819 1.4433855550 -1.1321844778
C 1.0048523122 0.7978411127 1.1626737207
O 2.3928876185 1.0990201751 0.9432434800
C 2.7093400714 2.4197183468 0.9471033000
C 4.1556501579 2.6250776945 0.6262878133
O 1.8950746510 3.2914423109 1.1658688600
H 5.5305463965 -3.6606497381 -2.1396027414
H 5.0404496389 -4.9004207390 -3.3301587347
H 4.6808414629 -5.1434091155 -1.5965229906
H 1.2790646175 -2.5911586520 -2.9190996266
H 0.0918844668 -1.2700226901 -1.2048896006
H 3.2587789771 -2.0580100131 1.5793578307
H 4.4419992537 -3.3781967626 -0.1090795232
H 1.4306106303 -0.9225341889 2.3380854597
H -2.1821229169 -0.8499605929 3.9965482773
H -3.4876517332 1.0272291891 4.9515115478
H -3.6257245740 3.1833618644 3.7106034367
H -2.4921314398 3.4316244518 1.5413553526
H -1.3241301271 2.1937904759 -1.7405899472
H -2.1267695220 3.2647683384 -0.6028046176
H -3.8993862363 1.6198303056 -0.1682727509
H -3.7916548986 2.0735286790 -1.8765080925
H -4.9716943244 -0.3812544844 -0.4102260820
H -4.3906411856 -1.5990887167 -1.5649629772
H -5.1458787665 -0.0990698662 -2.1635575251
H -2.4376459692 -1.2195746986 -2.8360304017
H -3.0076776834 0.3373221759 -3.4959053946
H -1.4575311565 0.2348906538 -2.6154505140
H 0.6772901713 1.3055016995 2.0745840420
H 4.2904172666 2.4859519893 -0.4520501133
H 4.4529189409 3.6376036861 0.8967553303
H 4.7775262742 1.8868828191 1.1369574844
