29
CONF12
C -3.9907496062 -1.6857459009 -1.6681834533
C -3.6057120935 -0.9069891089 -0.4363865678
O -3.1090948068 0.4204779577 -0.8672079948
P -1.7172396963 0.9889169574 -0.3690375580
S -1.3077070653 2.7428866755 -1.0737024065
O -1.7166031180 0.7579467489 1.2043862449
C -1.1757578457 1.7154866306 2.1815052289
C -2.3105719311 2.4705940879 2.8274142449
O -0.7536722126 -0.2497105211 -0.9299185881
C 0.5433028585 -0.4086667861 -0.5784292462
N 1.1116616209 0.4551997506 0.2426433357
C 2.3749583480 0.3033315166 0.5912821286
Cl 3.0291216995 1.4955749694 1.6869161979
C 3.1601837546 -0.7482216346 0.1214528915
Cl 4.8226816697 -0.9424760540 0.5824316318
C 2.5728224910 -1.6654360552 -0.7463513919
C 1.2468714049 -1.4997477577 -1.1053023271
Cl 0.4698123348 -2.6213668896 -2.1799984109
H -3.1176407873 -1.8656735912 -2.3015624518
H -4.4039401770 -2.6521054498 -1.3623818976
H -4.7499098232 -1.1520798731 -2.2462885654
H -4.4601322070 -0.7059385692 0.2142515914
H -0.6274257869 1.0979891882 2.8963464863
H -0.4744269871 2.3801040931 1.6716993286
H -2.8461860128 3.0736321514 2.0884036735
H -3.0137706254 1.7846184801 3.3075637178
H -1.9023990755 3.1399596799 3.5914545618
H 3.1476529477 -2.4983446950 -1.1341170910
H -2.8305927588 -1.4194611062 0.1395716902
