35
CONF90
C 0.7203572918 0.5631046285 3.1694337183
C 0.1479266021 -0.6213283314 2.4514087851
C -0.0112769829 -1.8575744040 3.0089177695
S -0.7394806415 -2.9821139152 1.9039108250
C -0.8515314116 -1.7888335436 0.6478551269
C -0.3314017515 -0.5959744825 1.0959407726
N -0.2936534857 0.5795195024 0.2890035474
C 0.8693491705 0.8642840993 -0.5930324109
C 2.1538829934 0.2438974704 -0.0671516178
C 0.5549987422 0.3951492413 -2.0145596663
O 1.5305996946 0.9594363475 -2.8827211321
C 1.3363513221 0.5386844053 -4.2311351423
C -1.3322584922 1.4658710655 0.2891234406
O -1.3443443518 2.4846615797 -0.3937714926
C -2.4889658087 1.0603935161 1.2075322138
Cl -3.7444511981 2.3571020141 1.3005172076
C -1.4697058015 -2.1140390570 -0.6694353257
H 0.4353239206 0.5493174667 4.2242948594
H 0.3682631716 1.4992009152 2.7258622760
H 1.8144163360 0.5688205793 3.1213871637
H 0.2462922644 -2.1736153867 4.0113690143
H 0.9724028220 1.9542909802 -0.6182396403
H 2.9591186199 0.4782306432 -0.7673971206
H 2.4236578185 0.6486410688 0.9103276005
H 2.0708602011 -0.8449117434 0.0073611638
H 0.5907200160 -0.7054896356 -2.0667645483
H -0.4535645028 0.7258025024 -2.3083546184
H 2.1144159924 1.0127580985 -4.8335983258
H 0.3488387713 0.8483100842 -4.6036213239
H 1.4221166687 -0.5541012461 -4.3207192068
H -2.1451401642 0.8666660629 2.2255257724
H -2.9773074085 0.1603812528 0.8257031207
H -2.3733516630 -2.7169875690 -0.5422915609
H -1.7423927319 -1.1937448045 -1.1924390756
H -0.7810660446 -2.6758090934 -1.3102416825
