39
CONF6
C -1.2364789171 4.0410039200 1.0146225113
C -1.0274221065 2.6323987005 0.5125252968
O -0.4955891440 2.4464455373 -0.5716066401
C -1.5096199322 1.5169449233 1.3981146342
C -1.2637956414 0.0800069018 0.9234454235
C -1.9824753177 -0.3332217642 -0.3545708145
C -2.9154421159 0.4773234375 -1.0016133050
C -3.6057129903 0.0212883640 -2.1228321743
C -3.3765112044 -1.2567306543 -2.6159185670
C -2.4539641080 -2.0793033356 -1.9738530726
C -1.7695105711 -1.6221586418 -0.8565021292
C 0.2064832514 -0.3014952291 0.9735608071
C 1.0876914978 -0.2688924703 -0.0811573247
C 2.4133292579 -0.8249555954 0.0579733022
C 3.3335363380 -0.8907798991 -0.9990393502
C 4.5830037853 -1.4512608352 -0.8014746648
C 4.9377914911 -1.9456631727 0.4579769020
C 4.0483729275 -1.8799667560 1.5190228935
C 2.7904301296 -1.3207070401 1.3112334291
O 1.9545669174 -1.2564140991 2.3825059294
C 0.6579097666 -0.7512170044 2.2728280706
O -0.0006040181 -0.7247209988 3.2922522576
O 0.8061919598 0.2298719167 -1.2843043746
H -1.8540396120 4.5834642749 0.2918774953
H -0.2673426653 4.5476408653 1.0497330904
H -1.7060252998 4.0769668375 1.9991296313
H -1.0339190600 1.6453792872 2.3810776070
H -2.5788840070 1.6938462293 1.5906182010
H -1.7095568347 -0.5328458936 1.7185636869
H -3.1136066286 1.4823741015 -0.6458817495
H -4.3222619341 0.6736918069 -2.6118068476
H -3.9108566823 -1.6106426493 -3.4914347239
H -2.2669821292 -3.0819153348 -2.3451869107
H -1.0501065201 -2.2692552107 -0.3627497627
H 3.0425576222 -0.4978795814 -1.9658811298
H 5.2888753295 -1.5041204278 -1.6229926779
H 5.9190845017 -2.3824967238 0.6117086242
H 4.3031774230 -2.2492928070 2.5057891964
H 0.0777059447 0.8872890363 -1.1914922763
