34
CONF178
C -3.6997260171 -2.7741234781 -0.4907887394
C -3.4413247938 -1.3031274400 -0.6930488874
O -2.0051800670 -1.0766734091 -0.4493745189
P -1.4103090427 0.3938091150 -0.5642846591
S -1.5237332399 1.3373571522 -2.2517838819
O -1.9993134114 1.0930120402 0.7377919576
C -1.9572279149 2.5523445580 0.9383685883
C -3.3478429000 3.1153069765 0.7810665627
O 0.1907720234 0.0919558596 -0.2609570490
N 0.4188902407 -0.5097964484 0.9878054686
C 1.6768200836 -0.7533825731 1.1728519132
C 1.9103945312 -1.3176998519 2.4741560138
N 2.1301356915 -1.7860726784 3.5085926187
C 2.8485732452 -0.5354694906 0.3079354203
C 2.7884367256 -0.7116792513 -1.0825516987
C 3.9299217505 -0.5174147014 -1.8492400568
C 5.1288306089 -0.1363583112 -1.2489343167
C 5.1933230622 0.0330170367 0.1322339181
C 4.0637656035 -0.1789564337 0.9113879732
H -3.4591749114 -3.0757469374 0.5321347305
H -4.7600755650 -2.9739167224 -0.6714453526
H -3.1098059371 -3.3721926762 -1.1904282814
H -3.6633476662 -0.9851706351 -1.7167225437
H -4.0085174456 -0.6876673716 0.0125600132
H -1.2540198020 2.9949889745 0.2269095728
H -1.5708720839 2.6825812592 1.9517382432
H -3.7146517581 2.9631408815 -0.2378108975
H -3.3234901971 4.1902755695 0.9859453362
H -4.0388459835 2.6434956288 1.4850981302
H 1.8666526527 -1.0208634664 -1.5571523790
H 3.8822003271 -0.6668433266 -2.9228668852
H 6.0139817656 0.0203881764 -1.8569225555
H 6.1253579377 0.3235908923 0.6053273682
H 4.1194022864 -0.0521082188 1.9883204644
