46
CONF118
C -2.6241826272 -0.4495024540 0.3434004187
C -2.9074824106 -1.0343250108 -1.0201865323
C -3.8021238354 -0.3129101542 -1.9986478429
C -2.2897313016 -0.4090260220 -2.2712035377
C -1.4042355769 0.7629223222 -2.1709517080
O -1.6229264668 1.8058730011 -1.5848863823
O -0.2400553642 0.5129920198 -2.8274177185
C 0.7837891767 1.5249305373 -2.6958437118
C 1.4089628164 1.5368113775 -1.3237664779
C 1.3396286524 0.4231396060 -0.4906713681
C 1.9428355175 0.4626331250 0.7632327467
C 2.6301631134 1.5928467711 1.1997132976
C 2.7056965720 2.6940434929 0.3512276845
C 2.0972345463 2.6758248292 -0.9003119105
O 1.7516658901 -0.6479622822 1.5638552723
C 2.7278306754 -0.9896379038 2.4880949248
C 2.3020653542 -1.3232371275 3.7690094286
C 3.2404492659 -1.7503873755 4.7058643647
C 4.5885127605 -1.8350897907 4.3652455533
C 4.9972906038 -1.4986948630 3.0749805730
C 4.0701949056 -1.0781477144 2.1262468281
C -4.4496301236 0.9577111731 -1.6657241671
C -5.5642977300 1.4158864085 -2.2355427117
Cl -6.3071680668 2.9198384178 -1.7467712186
Cl -6.4214357634 0.6039106589 -3.5196700162
C -2.9821427739 -2.5454266019 -1.0282425700
H -1.7112816629 -0.8979806771 0.7501776737
H -2.4894357806 0.6319067557 0.3282632129
H -3.4503738702 -0.6902826871 1.0209450199
H -4.3734945973 -0.9589877155 -2.6578126512
H -2.0052550016 -1.1132875949 -3.0455636118
H 0.3690080958 2.5080394396 -2.9366275106
H 1.5237982582 1.2568335589 -3.4554809779
H 0.8123710058 -0.4753079639 -0.7942150099
H 3.0869725428 1.6162404844 2.1828002400
H 3.2312214661 3.5841061842 0.6830898617
H 2.1493768047 3.5481781962 -1.5451334145
H 1.2487298154 -1.2475556855 4.0183861722
H 2.9132250705 -2.0120082553 5.7072917490
H 5.3170297929 -2.1642652354 5.0987958894
H 6.0447751331 -1.5713318264 2.7992078314
H 4.3805184815 -0.8225596824 1.1183051074
H -4.0151666930 1.5804052695 -0.8931089034
H -3.7672339581 -2.8825875594 -0.3425615744
H -2.0304745496 -2.9730207815 -0.6942519908
H -3.2052168507 -2.9315506694 -2.0265167350
