39
CONF73
C 2.4688678117 1.5634835928 -0.8099672397
C 1.0226711711 2.0370301131 -0.9717547666
C 0.2374298778 1.1900323400 0.0611302809
O 1.1248988024 0.0964012837 0.4039205854
C 2.2804046116 0.1150644282 -0.4172458593
O 2.0796936942 -0.6389184476 -1.6138878337
C 2.0564627884 -2.0371104946 -1.3872662439
C 1.5457310201 -2.6902062083 -2.6505967422
F 1.5426827697 -4.0370797991 -2.5118797785
F 0.2815724068 -2.3115111883 -2.9514408557
F 2.3117366641 -2.3957864785 -3.7275394349
C -0.0694617414 1.9171683527 1.3902355605
N 1.0837638898 2.6001369389 1.9536668528
C 1.4386079021 3.8937961934 1.8052192742
N 2.5837025319 4.1327126355 2.4323509989
C 2.8916295156 2.9156800730 2.9636490778
N 2.0142927214 1.9550798727 2.7023534387
C -1.0799044430 0.6265510963 -0.4700180625
C -2.0866453660 1.4064888870 -1.0529013858
C -3.2793301975 0.8642361548 -1.5207987420
C -3.4787754254 -0.5019683132 -1.3877030268
C -2.5270414655 -1.3175000302 -0.7947437070
C -1.3483682467 -0.7392198748 -0.3419091187
Cl -4.9773070331 -1.2001541464 -1.9788852648
Cl -1.9204992068 3.1519631477 -1.2326697888
H 2.9761806355 2.0881387338 0.0044483466
H 3.0605210605 1.6724352734 -1.7202988267
H 0.6603027871 1.8162790483 -1.9783630220
H 3.0933408355 -0.3300499518 0.1689626508
H 1.3790464269 -2.3185895696 -0.5711925248
H 3.0607525373 -2.4323121358 -1.1788365098
H -0.8489558446 2.6667259371 1.2373110635
H -0.4242644574 1.1812912551 2.1166692492
H 0.8367102671 4.6059511417 1.2549143877
H 3.7754783288 2.7304828709 3.5611960856
H -4.0306645873 1.4979693571 -1.9754351437
H -2.6955897148 -2.3823205211 -0.6852979108
H -0.6029373832 -1.3685349539 0.1256191844
H 0.9109958516 3.1074996551 -0.8003093098
