20
CONF52
C 0.1540943342 -0.6211114100 -0.3115128482
O 0.8064412296 0.3705178007 -1.1454593090
C 1.9936448330 0.7379558548 -0.5590833890
O 2.7299213547 1.5700998521 -1.0524069637
C 2.1721805014 -0.0159038109 0.6644987600
O 3.2468711083 0.1144604166 1.4794710142
C 1.1042710489 -0.8210318118 0.8240380486
O 0.7770961033 -1.6913737366 1.7852204304
C -1.2257981879 -0.1038540146 0.1199930074
O -1.1140760032 1.0826163701 0.8967520027
C -2.1381585223 0.0667865125 -1.0843383601
O -3.4567010486 0.3331418904 -0.5997221766
H 0.0375453111 -1.5394688265 -0.9016712973
H 3.8536956471 0.7569468305 1.0802342996
H 1.4658673988 -1.7125507366 2.4678394780
H -1.6564610403 -0.8634705744 0.7844842618
H -0.8401269002 1.8002633407 0.3083110709
H -2.1159945426 -0.8568349149 -1.6817582707
H -1.7729656177 0.8945586347 -1.7106038908
H -4.0213468118 0.4982522224 -1.3642861856
