48
CONF4
C 2.6445515461 1.7587889890 1.1856050675
C 2.8239116046 0.7565861086 0.0242393461
C 2.2166410853 1.3147040565 -1.2627862530
C 0.6838074877 1.4130715223 -1.1360761700
C 0.0004898684 0.1096576508 -0.6664533490
C 0.6778599819 -0.5052127009 0.5887081123
C 2.1637165114 -0.6157997339 0.2892991212
C 3.1453375384 -1.3274544172 1.2344058133
C 4.4632220040 -0.7704505221 0.7341993775
C 4.2849620479 0.3489525084 0.0225453538
C 0.0610420171 -1.8631461940 0.9287762410
C -1.4557051712 -1.7799711045 1.0802465743
C -2.0891919213 -1.1752089392 -0.1705961624
C -1.5447133599 0.2429881189 -0.4944703205
C -2.1812384614 0.6806503752 -1.8282990480
C -3.7209635470 0.6381453589 -1.8213742753
C -4.2585823396 -0.6869770180 -1.3509678301
O -5.1420953085 -1.2871961091 -1.9498559339
C -3.6265739616 -1.2238490603 -0.0950775742
C -1.8966810755 1.2643498948 0.6000827585
H 3.2715791762 2.6393690414 1.0056248559
H 2.9544180134 1.3140194550 2.1363742709
H 1.6114089603 2.0993730386 1.2919498981
H 2.6283436535 2.3046226534 -1.4996709803
H 2.4743910816 0.6459040346 -2.0949903461
H 0.4329796574 2.2281221414 -0.4490543088
H 0.2780529451 1.7011314242 -2.1111750365
H 0.1461918740 -0.6321431822 -1.4710943825
H 0.5333193681 0.1614203785 1.4494738982
H 2.2486771010 -1.1601891404 -0.6659868577
H 3.0880664405 -2.4193792775 1.1711211978
H 2.9815544255 -1.0586916636 2.2895121627
H 5.4239402623 -1.2211296106 0.9661298310
H 5.0759242249 0.9626820186 -0.4014458146
H 0.3045006960 -2.5732545502 0.1237751456
H 0.5137801421 -2.2574487570 1.8467038944
H -1.7183331019 -1.1744782591 1.9582747000
H -1.8742028995 -2.7795074560 1.2525474593
H -1.7940659979 -1.8115826053 -1.0208952790
H -1.8111630447 0.0238705245 -2.6273359309
H -1.8746383374 1.6999217310 -2.0819904051
H -4.1286787862 0.8631763096 -2.8108226541
H -4.1009845694 1.3995598822 -1.1251921600
H -3.9734581112 -2.2478850274 0.0740656457
H -3.9740882045 -0.6104063159 0.7484370739
H -2.9682543952 1.2802031384 0.8167282784
H -1.3793058087 1.0562852657 1.5393198231
H -1.6197508150 2.2738059184 0.2819048775
