34
CONF184
C -1.6120203691 -2.4997441665 -0.3258543399
C -2.8317850592 -1.6757939000 -0.6662707469
O -2.6821600809 -0.2765718246 -0.2309289931
P -1.8105895931 0.7788795373 -1.0427668965
S -1.8921603006 0.8014616636 -2.9751527119
O -2.1495403487 2.1473835433 -0.3237188209
C -2.7859123531 2.2570565524 1.0100137302
C -2.6837404283 3.7019752497 1.4234769589
O -0.2192565050 0.4477780987 -0.6534478802
N -0.0022082719 0.4320707720 0.7287144465
C 1.1901246733 0.0239736871 1.0259908619
C 1.3854393932 -0.0218170225 2.4488714051
N 1.5776713564 -0.0602931590 3.5888286537
C 2.3094767622 -0.4043902858 0.1710501827
C 2.5780165894 0.2039463218 -1.0641704836
C 3.6586685719 -0.2282464508 -1.8219227756
C 4.4684879663 -1.2689010873 -1.3702221728
C 4.2083476704 -1.8706108173 -0.1409832139
C 3.1432907514 -1.4330278149 0.6347909694
H -1.3793918768 -2.4291224574 0.7404981292
H -1.8227625996 -3.5466853965 -0.5655801936
H -0.7382514434 -2.1864813111 -0.9042405246
H -3.0463885257 -1.6773135577 -1.7394279297
H -3.7147799155 -2.0172531342 -0.1234547096
H -2.2595680492 1.5950781567 1.7003773264
H -3.8232325609 1.9304196519 0.9031010667
H -1.6383619237 4.0090653820 1.5143781878
H -3.1668777597 3.8220535534 2.3979671377
H -3.1885971106 4.3520955731 0.7039826659
H 1.9651345476 1.0220257282 -1.4179860870
H 3.8702478185 0.2529136148 -2.7711400614
H 5.3064506811 -1.6049427596 -1.9724153957
H 4.8388306052 -2.6770142642 0.2183256241
H 2.9473974762 -1.8999669726 1.5952281868
