42
CONF63
C 1.3898235835 -2.0953187595 2.3423223253
O 0.1481491174 -1.3802083388 2.1954026790
C -0.7577418896 -1.9676265714 1.4029131118
C -1.8253050158 -1.3011806808 0.9107020981
C -2.0622899005 0.1444605574 1.1251646257
C -3.2782278360 0.5588295431 1.6841984360
C -3.5536242301 1.9000107881 1.8995516597
C -2.6093254540 2.8626366536 1.5529840773
C -1.3982699813 2.4706605392 1.0005763544
C -1.1098796817 1.1219470759 0.7798651378
C 0.2219192778 0.7249987822 0.2204950959
O 0.6635596399 1.7284198191 -0.7267975669
C 1.8947600401 1.5478161763 -1.2364251842
C 2.3506400703 2.5078858336 -2.1581801825
C 3.6099894644 2.3413002322 -2.6916442530
C 4.3906293326 1.2426835525 -2.3097463714
C 3.8354940536 0.3662772066 -1.3977246340
N 2.6157835913 0.4999750434 -0.8648436558
C 4.5796374568 -0.8565232479 -0.9072194481
F 5.8019203895 -0.9633336892 -1.4722087096
F 3.9026870246 -1.9931744402 -1.1871503101
F 4.7561739490 -0.8221366534 0.4346366901
C -2.7493822033 -2.1318756573 0.1084425959
O -2.6786758183 -3.3384706065 -0.0272240551
O -3.6964741826 -1.3780672071 -0.5032432237
C -4.6195773021 -2.1229318578 -1.3196035966
H 1.9442305369 -1.5850471051 3.1299082441
H 1.9577656191 -2.0578722549 1.4061706319
H 1.2024046887 -3.1353721621 2.6323548937
H -0.6183488750 -3.0244270964 1.1756558297
H -4.0129477344 -0.1939993990 1.9493299664
H -4.5020111107 2.1942129681 2.3373754843
H -2.8150703366 3.9158679498 1.7147444988
H -0.6612730791 3.2168431957 0.7243605041
H 0.1730791874 -0.2439092065 -0.2855260252
H 0.9699004817 0.6444262265 1.0164370161
H 1.7118296254 3.3414283462 -2.4248424677
H 3.9967453590 3.0600572284 -3.4064550938
H 5.3830619143 1.0840874897 -2.7102109351
H -4.0885035588 -2.6364836079 -2.1255407513
H -5.1525983490 -2.8640418034 -0.7177878145
H -5.3106570703 -1.3828253705 -1.7231649637
