21
CONF44
C 0.5732409652 -1.6154726385 -0.0545700448
C -0.0596080748 -0.2134199934 -0.1495109724
C 1.0337495139 0.8022073900 -0.5115077334
O 0.5084044972 2.1123217010 -0.8185179410
C -1.1076188431 -0.2930967494 -1.2766017638
O -1.9460831703 0.8623311736 -1.3772341980
C -0.7700673799 0.1372983113 1.1663017656
O 0.0954382153 0.0397597629 2.3189489426
O 1.7145253571 -1.6839263627 0.8060518640
H 0.9182969840 -1.9281705286 -1.0477276872
H -0.2027864637 -2.3267381109 0.2716222070
H 1.7810202924 0.8751032562 0.2867306016
H 1.5447021803 0.4607588267 -1.4189772468
H 0.4027988381 2.5985733111 0.0087277097
H -0.5830457634 -0.4763033074 -2.2282953843
H -1.7761308033 -1.1431484415 -1.0932001655
H -1.3396881599 1.6213177948 -1.3817124426
H -1.2181335119 1.1362044197 1.1180857847
H -1.5778639409 -0.5844850677 1.3327660519
H 0.5696019526 0.8751248525 2.4148082707
H 1.4392476115 -1.2562393088 1.6338123820
