82
CONF39
C -4.7460572604 3.0874528217 -2.5329270812
C -4.0464449517 2.7856550586 -1.2365185819
C -3.4308971860 3.7451234053 -0.5393114197
C -4.1813695524 1.3454724450 -0.7949223959
C -5.5886461090 1.1162517115 -0.1226850406
C -5.3001028452 0.4440840385 1.2372669299
C -3.9648141008 -0.2763224587 1.0167419381
C -3.1797360944 0.8099472830 0.2437404843
C -1.8188317151 0.3001111960 -0.2303534505
C -1.0472151970 1.2866147346 -1.1100078674
C 0.3082313889 0.7332627068 -1.5666258446
C 1.1561670533 0.1608699899 -0.4179315742
C 2.6106728769 -0.2536144390 -0.8519870892
C 3.3174539485 1.0117986558 -1.3912805850
C 4.8294980161 0.8516036860 -1.5293836747
C 5.4693231752 0.4536895180 -0.2131482147
C 4.8986068330 -0.8641634005 0.3670404659
C 3.3485286888 -0.6896925434 0.4523670937
C 2.6212809765 -1.8638317755 1.1115417470
C 1.2108708285 -1.4582169786 1.5419332561
C 0.3428646562 -0.8948999662 0.3970460773
C -0.9479380394 -0.1587387736 0.9851018084
C -1.7470275997 -1.1047156724 1.9257420826
C -3.1694691114 -0.6273785236 2.2728895408
C -0.5664111896 1.0660465770 1.8516660020
C -0.0677899439 -2.0990592646 -0.4815820061
C 5.3534269890 -2.0835813347 -0.4464597958
C 5.4580805605 -1.0227680341 1.7948689037
O 6.8895301986 0.3987295614 -0.4491980414
C 2.6232408982 -1.3181805064 -1.9693456479
C -4.2163770058 -1.5346404445 0.1596988140
O -5.0827737596 -2.4835860067 0.8077922734
H -4.7148912882 4.1520089893 -2.7782861907
H -4.2827446900 2.5231294559 -3.3524609516
H -5.7946981362 2.7667782392 -2.4894860812
H -3.4243467823 4.7709288845 -0.8981436043
H -2.9134416864 3.5479865069 0.3938973439
H -4.1194191294 0.7241339007 -1.6996921159
H -6.1216448368 2.0633139734 0.0022921795
H -6.2151913817 0.4768692489 -0.7519646172
H -5.1715035345 1.2046605654 2.0175776207
H -6.1028930189 -0.2286869995 1.5533755541
H -3.0133336866 1.6129093690 0.9739362523
H -2.0090533622 -0.5827519383 -0.8515461730
H -1.6504544838 1.5301665791 -1.9931808853
H -0.9061466475 2.2343254737 -0.5796917835
H 0.8553415661 1.5359120572 -2.0712127243
H 0.1301520351 -0.0356287459 -2.3267899850
H 1.3392853127 0.9869933903 0.2810794901
H 3.1143573169 1.8497337191 -0.7086466217
H 2.9025355043 1.2869847098 -2.3667445935
H 5.0827308329 0.1095313999 -2.2961805496
H 5.2698834193 1.7999646146 -1.8592616462
H 5.2584439137 1.2472151911 0.5252561411
H 3.2179672474 0.1686139312 1.1354386626
H 3.1622629790 -2.1965318559 2.0022929957
H 2.5922842915 -2.7279118685 0.4387702427
H 1.3214708421 -0.7147661699 2.3387292454
H 0.7023193480 -2.3222053543 1.9877970457
H -1.8184141273 -2.1075637285 1.4956754075
H -1.1830000690 -1.2218790293 2.8586568848
H -3.6736379746 -1.4018187872 2.8667280748
H -3.1318209870 0.2623546043 2.9137679045
H -1.4346360131 1.4286194920 2.4074329559
H -0.1832763357 1.9105096604 1.2787649197
H 0.1887234835 0.8007192817 2.5948994872
H -0.8620671162 -2.6805302452 -0.0068383710
H 0.7747137150 -2.7781032412 -0.6166697524
H -0.4157835043 -1.8200618398 -1.4771567481
H 6.4295172412 -2.2347107027 -0.3174270191
H 4.8449243197 -2.9862710919 -0.0933111525
H 5.1589492105 -1.9836870058 -1.5148419671
H 6.5533711794 -0.9839103842 1.7920361620
H 5.1880444097 -1.9892426450 2.2279346932
H 5.0867222041 -0.2315770864 2.4567114668
H 7.3361884924 0.3221947172 0.4019963425
H 2.5939358326 -2.3408553926 -1.5908007176
H 1.7684065033 -1.1877545801 -2.6376227070
H 3.5194200424 -1.2310886779 -2.5873088586
H -4.7246623717 -1.2673308098 -0.7711132925
H -3.2766780979 -2.0272707973 -0.1124917478
H -4.5840898053 -2.8977421545 1.5220548838
