63
CONF213
C 2.5967315675 -0.4103371721 -1.0665721421
C 1.2798114548 0.1346298160 -0.5218557803
N 1.1101127093 -0.2145404497 0.8956163602
C 2.2007812591 0.3793828923 1.6816270854
C 3.5581859344 -0.1564719467 1.2381591628
C 3.7634313577 0.1389961760 -0.2470262366
N 5.0595948703 -0.3386073955 -0.7368462263
C 6.0685781835 0.4581837620 -1.2682100473
C 6.1567336346 1.8272198371 -1.4779228421
C 7.3369024697 2.3198331947 -2.0437389743
C 8.3907318556 1.4702929533 -2.3870786423
C 8.3041626635 0.0910846582 -2.1772749394
C 7.1345447052 -0.3954806288 -1.6170048108
N 6.7353174242 -1.6768463075 -1.2870648473
C 5.4601499176 -1.6727736098 -0.7437669466
O 4.8244284246 -2.6499757867 -0.3527785838
C -0.1827930371 0.2531335191 1.4147991565
C -1.3842302435 -0.4643630910 0.8066172206
C -2.6763379866 -0.1040109235 1.5376951430
C -3.9063622214 -0.7819759398 0.9116748846
C -5.1737131812 -0.6506030993 1.7407760996
C -6.1980778159 -1.5863290412 1.5539340304
C -7.3971113958 -1.5015268800 2.2527423001
C -7.5569195320 -0.4558183671 3.1472595708
C -6.5748286359 0.4914373226 3.3672345379
C -5.3800801880 0.3846520288 2.6549757880
F -8.7248951983 -0.3624125948 3.8396582111
C -4.1514109474 -0.2843140351 -0.5045219273
C -3.9733649698 -1.1290082378 -1.6013257159
C -4.1763583487 -0.6755549851 -2.9042158247
C -4.5602657289 0.6407110502 -3.0828139213
C -4.7513457181 1.5144062844 -2.0243839657
C -4.5453349066 1.0377616056 -0.7340306287
F -4.7605741742 1.0985010608 -4.3487739755
H 2.7085626485 -0.1183090737 -2.1168331113
H 2.5932296727 -1.5036851138 -1.0137333471
H 0.4544171972 -0.2903799558 -1.0999416383
H 1.2461279737 1.2361126711 -0.6596115866
H 2.1943384137 1.4859781872 1.5912377445
H 2.0384428531 0.1394293329 2.7385482407
H 3.6036432081 -1.2365314742 1.4083071131
H 4.3519196971 0.3176303865 1.8264199841
H 3.7814706295 1.2278353562 -0.3737132138
H 5.3471839905 2.4994193350 -1.2170769494
H 7.4305932358 3.3867240869 -2.2179923604
H 9.2931751584 1.8843553557 -2.8245945211
H 9.1182083212 -0.5754607691 -2.4415872278
H 7.2708321421 -2.5215733057 -1.4099716141
H -0.2973435662 1.3473700448 1.2706661993
H -0.1806092234 0.0762704895 2.4985008317
H -1.4921268104 -0.2056437405 -0.2526740585
H -1.2219800798 -1.5492079636 0.8573263637
H -2.6018869562 -0.4093298987 2.5894566947
H -2.8066654333 0.9859105941 1.5295930116
H -3.6854444104 -1.8544472087 0.8379329706
H -6.0548030795 -2.3983122622 0.8456319503
H -8.1902801792 -2.2283423709 2.1137682126
H -6.7383954836 1.2925999038 4.0800750242
H -4.6076870494 1.1257516158 2.8299967879
H -3.6669725526 -2.1587262828 -1.4400435560
H -4.0386211478 -1.3265948022 -3.7608506830
H -5.0566502380 2.5384836506 -2.2109809503
H -4.6988697579 1.7084350465 0.1065819787
