44
CONF153
C -4.0284757849 -3.4516125395 -1.5557227352
S -3.6034415969 -1.8033567222 -2.1469351155
O -4.5270284337 -0.8150109263 -1.5449274635
O -3.5118105382 -1.8591484006 -3.6200282137
C -1.9099042918 -1.5278348365 -1.5144096693
C -1.6314322496 -1.2973150793 -0.1575713725
C -0.2762046656 -1.1536394500 0.1718395661
C 0.7408555827 -1.1886354798 -0.7801937664
C 0.4109515890 -1.4286209799 -2.1131878606
C -0.9122814007 -1.6050701800 -2.4818726305
C 2.1900379598 -0.9577144941 -0.4659034843
O 3.0330658521 -1.7497971253 -0.8310701790
C 2.5727989969 0.3693487782 0.1526732189
C 3.1341583805 1.3090843169 -0.9408822767
O 3.1542476988 0.9820659710 -2.1077509824
C 3.6272954678 2.6295086829 -0.4191164557
C 4.6312343345 2.4155335670 0.7230331983
C 4.0243832906 1.5884791788 1.8648117732
C 3.5276871140 0.2608261261 1.3585482268
O 3.8244403834 -0.8067837440 1.8457796909
Cl 0.1916703054 -0.9979284824 1.8558000317
C -2.6769065966 -1.1655747427 0.9295899074
O -2.6698213149 0.1404244677 1.5264608926
C -3.1419867595 1.1904194518 0.6960335575
C -2.0640009652 2.2478396604 0.5615897577
F -2.5409369040 3.3172400671 -0.1196713864
F -0.9718780932 1.8007813922 -0.1071536393
F -1.6298437090 2.6925681383 1.7636291156
H -4.0263355539 -3.4596282942 -0.4639454013
H -5.0296122178 -3.6587693499 -1.9446960147
H -3.2958134245 -4.1531819929 -1.9603920992
H 1.2006454878 -1.4664528582 -2.8557436284
H -1.1732425040 -1.7934097751 -3.5159125539
H 1.6961848737 0.9121560706 0.5358093505
H 4.0673748515 3.1899422498 -1.2467152095
H 2.7588909372 3.1852784606 -0.0382311014
H 4.9456597199 3.3877286359 1.1104721712
H 5.5242467606 1.9106785520 0.3372817626
H 3.1644066757 2.1282469701 2.2863378459
H 4.7477594471 1.4084948187 2.6628963458
H -3.6767795556 -1.3971249189 0.5599314427
H -2.4401516341 -1.8513166283 1.7473318086
H -3.4156545105 0.8548386157 -0.3097641650
H -4.0144518726 1.6664433097 1.1604250579
