45
CONF34
C -6.9950968573 0.5296668184 -0.0784647707
C -8.4147530852 0.0828088758 0.2954760196
O -8.9292522996 0.8912868450 1.3539620502
C -6.4482719534 -0.2597210283 -1.2410283794
C -5.0106978352 0.1201712251 -1.7353886314
C -3.8343643970 -0.4610466152 -0.8777061513
C -2.4700104900 0.2831873730 -1.1093314133
C -1.2265386763 -0.5542688077 -0.6374430635
C 0.0616415752 0.3220100399 -0.4352356707
C 1.3831162021 -0.5280741228 -0.4107972492
C 2.5933364790 0.2440955496 0.2285810043
C 3.9849571169 -0.3808443687 -0.1434305611
C 5.1422687675 0.0884006673 0.8098477342
C 6.5674949975 -0.1312298221 0.1966787522
C 7.7283797997 -0.0711664652 1.2439856097
F 8.8956906275 -0.0353220155 0.5877579954
F 7.6207230247 1.0314124524 1.9981519208
F 7.7166120306 -1.1484985121 2.0353887517
F 6.7976230519 0.8270002006 -0.7255866218
F 6.6178284227 -1.3448585621 -0.3999519117
F 5.0556581541 -0.6017828583 1.9686116182
F 4.9912141790 1.4068217500 1.0706766771
F 3.8909620020 -1.7274827625 -0.0721529987
F 4.2940184363 -0.0236513674 -1.4096698430
F 2.5684325518 1.5248561903 -0.2024471906
F 2.4561309781 0.2237975251 1.5731757479
F 1.1639020058 -1.6538132376 0.3043829658
F 1.7030691905 -0.8631504182 -1.6804095725
F 0.1445836895 1.2153338439 -1.4460194831
F -0.0484410236 0.9854313659 0.7376272011
F -0.9664123783 -1.4990955422 -1.5689674689
F -1.5227111694 -1.1569140442 0.5357023014
F -2.4937073085 1.4486344274 -0.4227865984
F -2.3287258767 0.5476091551 -2.4270516579
F -3.6724730183 -1.7664629339 -1.1944922537
F -4.1448872662 -0.3671321638 0.4369916305
F -4.8501741811 -0.3371442633 -3.0003171807
F -4.9097256479 1.4763152181 -1.7547468050
F -6.4273239468 -1.6074698157 -0.9695009265
F -7.2651510372 -0.0954659956 -2.3324156116
H -6.3315928490 0.4128420219 0.7822020600
H -7.0063746458 1.5864689310 -0.3606224538
H -9.0916866933 0.2234606526 -0.5508904346
H -8.4222299405 -0.9790248310 0.5720209575
H -8.4434518093 0.6736873845 2.1594581799
