65
CONF422
C -1.7411391471 3.7452574614 0.2248425713
C -0.7877111443 2.6252416485 0.6331261771
C -0.9005887137 2.2383203967 2.1272612326
C -0.5491015223 3.3884411792 3.0672963364
C 0.0182394434 1.0577669315 2.3507391712
O 1.1719543058 1.1345044617 2.7317118360
O -0.5849732348 -0.0960107743 2.0119994077
C 0.2284027450 -1.3159391453 2.0263570892
C 0.2079453392 -1.9489810241 3.4084277185
C -1.1901580013 -2.3919428282 3.8687390717
C -1.9912188407 -2.9435894701 2.7300742745
C -1.6399707668 -2.8878733855 1.4313655019
C -0.3490248675 -2.2450977282 0.9630299514
C -0.5532628413 -1.5700304756 -0.4112223138
C -1.0363989148 -2.6063482430 -1.4502023833
C -2.2011866509 -3.3849513288 -0.9094362528
C -2.4770180890 -3.4807869777 0.4012174955
C 0.0604106608 -3.5639970953 -1.9503740061
C 0.6758214124 -0.7827591487 -0.8761249371
C 0.4462500785 -0.0418145140 -2.1945799568
C 1.5029855066 1.0069051547 -2.4831499226
C 1.2133838374 1.8316344760 -3.7188539820
C 2.4079213289 2.7095618426 -4.0660330211
C 3.6048601668 1.8191638147 -4.3380474960
C 3.8177273992 0.7117015175 -3.3348751119
O 4.8819388656 0.1300813640 -3.2290484634
O 2.7877086004 0.2859351537 -2.5843432587
O 2.7734703669 3.5664877405 -2.9712912999
C -1.9713347825 -1.2886763640 4.6071979262
H -1.6801785901 3.9189578302 -0.8539912089
H -2.7768519554 3.4833990388 0.4676526866
H -1.5014933893 4.6868716255 0.7267941723
H -0.9941224554 1.7352569682 0.0270013253
H 0.2497882622 2.9201549651 0.4265391120
H -1.9280631191 1.9011923870 2.3113720877
H -0.5492980226 3.0544656393 4.1090093144
H 0.4430214103 3.7873988761 2.8353412937
H -1.2787486517 4.1958001886 2.9708541318
H 1.2524996188 -1.0332968876 1.7710184950
H 0.8660072410 -2.8248903793 3.3522083861
H 0.6510451235 -1.2611827510 4.1361656358
H -1.0499160841 -3.2061318331 4.5953490588
H -2.9379861920 -3.4182031608 2.9904103301
H 0.3992866216 -3.0432043390 0.8379286932
H -1.3753889368 -0.8493504789 -0.2921130840
H -1.3981550420 -2.0502795606 -2.3264655301
H -2.8375705485 -3.8912090680 -1.6331207911
H -3.3506632057 -4.0382963131 0.7351487123
H 0.8511987413 -3.0275334102 -2.4836559765
H 0.5146270305 -4.1147890768 -1.1205191676
H -0.3703901120 -4.2977206924 -2.6391933338
H 0.9280216326 -0.0313460827 -0.1186584583
H 1.5458739223 -1.4453239467 -0.9557899143
H 0.3948812833 -0.7318494159 -3.0451072410
H -0.5176156717 0.4833400958 -2.1496853877
H 1.6160445102 1.6672227302 -1.6146338628
H 0.9818664559 1.1793753659 -4.5702308542
H 0.3282275088 2.4458307111 -3.5181843028
H 2.1906267018 3.3133008067 -4.9575509031
H 3.4702281241 1.3211771136 -5.3067433735
H 4.5296928657 2.3981678284 -4.4024926883
H 2.0092684850 4.1181765274 -2.7587316560
H -2.1723348989 -0.4397510695 3.9487309972
H -1.3998309262 -0.9317271204 5.4706384376
H -2.9295295947 -1.6762070484 4.9689018100
