55
CONF13
C 6.6719369705 -2.5116233065 -2.6507177095
O 5.4010432624 -2.0262967327 -3.1060920476
C 4.4425235128 -1.7955671429 -2.1664331032
C 3.2148057227 -1.3258472138 -2.6535566227
C 2.1745376903 -1.0617305194 -1.7800158121
C 2.3261153684 -1.2581947960 -0.4014757479
C 3.5490793390 -1.7334928831 0.0683891237
C 4.6102890392 -2.0029300700 -0.7959702117
C 1.2351883386 -0.9395514725 0.5855304435
S -0.4384004852 -1.6291182090 0.1207185209
C -1.2903439560 -0.2558313202 -0.6324950386
C -1.7127787559 -0.3852555012 -1.9571522767
C -2.4581141353 0.6171302611 -2.5692240217
C -2.7615840508 1.7771957650 -1.8626966247
C -2.3381462131 1.9229703903 -0.5469235945
C -1.6225599923 0.9065220161 0.0890376477
N -1.2453940025 1.0733173340 1.4483422245
C -2.2815576916 1.4321372821 2.4371379264
C -2.9576714415 0.2134822988 3.0572100684
N -3.7146090634 -0.5928760529 2.0981723570
C -4.0725910476 -1.8777867448 2.7033308293
C -4.9252028838 0.0931407869 1.6438676853
C 0.0016512797 0.7999981600 1.9253978977
O 0.2602714057 0.7481545204 3.1276902722
C 1.1455453945 0.5497337049 0.9357615294
O 1.0754066684 1.3050820616 -0.2886887792
C 1.1063529876 2.6542308200 -0.1598924990
C 1.0731667124 3.3183671809 -1.4991624286
O 1.1659167795 3.2101095585 0.9171460791
H 7.2832869357 -2.6232020396 -3.5464328996
H 6.5658690924 -3.4824566132 -2.1529628811
H 7.1438236600 -1.7950525641 -1.9684571249
H 3.0957553196 -1.1767938386 -3.7221009244
H 1.2279104047 -0.7077081397 -2.1746726090
H 3.6860423172 -1.9001970493 1.1337398771
H 5.5429274749 -2.3755731238 -0.3907209893
H 1.4588394181 -1.4440288218 1.5316278706
H -1.4516266532 -1.2842608000 -2.5060363534
H -2.7828711974 0.4970690985 -3.5974528334
H -3.3171217388 2.5795666718 -2.3371214943
H -2.5558696573 2.8397686528 -0.0089810694
H -3.0092421378 2.0808461315 1.9480754911
H -1.8014522487 2.0094266352 3.2307521071
H -2.1842534579 -0.4212590940 3.5032880870
H -3.6021555608 0.5757982901 3.8848209084
H -4.7187023041 -1.7595837787 3.5945422467
H -3.1656158725 -2.4119343875 3.0049520896
H -4.6093876948 -2.4920780684 1.9731088938
H -5.4654723801 -0.5519412279 0.9436997927
H -5.6058838578 0.3437146352 2.4805065472
H -4.6756187958 1.0186699655 1.1162923734
H 2.0601956412 0.8318677783 1.4674435645
H 0.3603260319 2.8173862919 -2.1582298465
H 0.8192211355 4.3713546933 -1.3822906387
H 2.0661975897 3.2351318500 -1.9546266748
