26
CONF14
C 3.2487917374 -0.8200642853 0.1665089369
C 2.3684554884 -0.1712864000 -0.8631503610
C 1.2119912670 0.4535636637 -0.5991860614
C 0.5392539141 0.6267825908 0.7398497893
C -0.6168422465 -0.3272014150 0.8566485931
C -1.9391441907 -0.0634791472 0.7667785902
C -2.9404757125 -1.1831861896 0.8823272368
C -2.4537087597 1.2841463667 0.5503460129
C -3.7512111174 1.6139376992 0.4544202538
C 2.8868003406 -0.2721284297 -2.2718250764
H 4.2421828336 -0.3537596102 0.1651862521
H 2.8444670633 -0.7684687900 1.1785090966
H 3.4026777097 -1.8766689427 -0.0860774743
H 0.6498172658 0.8608097105 -1.4404539844
H 1.2430812827 0.4278484400 1.5545755215
H 0.2149203303 1.6658690754 0.8494744849
H -0.3210756028 -1.3684150383 0.9877843524
H -3.5552114572 -1.2574755904 -0.0225313490
H -3.6269436035 -1.0137494620 1.7201393261
H -2.4380853988 -2.1404386281 1.0376575136
H -1.7200488102 2.0805153568 0.4517838370
H -4.5458499801 0.8787842144 0.5374139962
H -4.0490023412 2.6440739455 0.2866028807
H 3.0018695568 -1.3231014872 -2.5664200988
H 2.2213664414 0.2191365484 -2.9864483343
H 3.8819231905 0.1839558996 -2.3499138443
