32
CONF86
C -2.9885353714 0.7281664859 2.6709484997
C -1.7125851226 1.0441613352 1.9313750818
O -0.7803433787 -0.1018564170 2.0443955371
P -0.4840533974 -1.0531249091 0.8092226094
S 0.7793229821 -2.4622920462 1.2245956432
O -1.9404190273 -1.4404649036 0.2970323457
C -2.1213214541 -2.3121586840 -0.8753373854
C -3.6017578889 -2.5526028202 -1.0272728476
O -0.0302844220 -0.0757850895 -0.4358260341
C 1.2416886028 0.4223061884 -0.6062780811
C 1.7374085699 0.4194512187 -1.9092267665
C 2.9909210419 0.9496482756 -2.1609000344
C 3.7264407035 1.4674568334 -1.0971450882
C 3.2366070909 1.4744010326 0.2061781228
C 1.9790895143 0.9487671321 0.4550465851
N 5.0535934640 2.0234232377 -1.3578323937
O 5.4629378779 2.0276014952 -2.5171830606
O 5.6971616311 2.4601601872 -0.4052661861
H -2.7816734999 0.4955638427 3.7189884825
H -3.6437721023 1.6044024368 2.6343312769
H -3.5101678831 -0.1151343358 2.2112722084
H -1.8913001448 1.2625463936 0.8747118069
H -1.1727792909 1.8806079706 2.3805816453
H -1.6984552704 -1.8010066150 -1.7458439907
H -1.5722459529 -3.2416340617 -0.6948107258
H -3.7678621977 -3.1963446128 -1.8961240120
H -4.1355322386 -1.6117266772 -1.1859119458
H -4.0074288329 -3.0513798054 -0.1430171797
H 1.1361926018 0.0014105536 -2.7085520822
H 3.3975419864 0.9563087034 -3.1639600630
H 3.8279266600 1.8906533893 1.0116154340
H 1.5736853474 0.9584742390 1.4601931062
