46
CONF62
C -5.1434244006 -0.7127596527 1.9017277907
C -3.9471132711 -1.5624553710 2.2616707262
C -3.0259794442 -2.0599663314 1.1944767337
C -2.5343614046 -0.9849292980 2.1935372454
C -2.2254624210 0.3565654482 1.6723588282
O -2.8337204149 0.9617389657 0.8099572892
O -1.1065054726 0.8437759676 2.2709750533
C -0.5740189062 2.0810264691 1.7033295181
C 0.1857432767 1.7890366268 0.4392238924
C 1.3937422182 1.0928165328 0.5148152077
C 2.0824897849 0.7794677645 -0.6499470919
C 1.5935900637 1.1580924089 -1.8992531050
C 0.3971841684 1.8637775668 -1.9650069856
C -0.3095200133 2.1774152763 -0.8058852621
O 3.2232407192 0.0090411414 -0.5102253092
C 4.3081480081 0.2542746070 -1.3354410525
C 5.0199670610 -0.8536690706 -1.7844079583
C 6.1652359097 -0.6599632707 -2.5521246171
C 6.5901115683 0.6273758221 -2.8739122862
C 5.8657240537 1.7264675612 -2.4146456291
C 4.7235302539 1.5492091893 -1.6393902836
C -3.2250438168 -1.7308800778 -0.2304296708
C -2.2311916162 -1.6959524343 -1.1152038719
Cl -2.4738434848 -1.3379460037 -2.8031336197
Cl -0.5688517636 -1.9597307411 -0.6751265848
C -4.1922902323 -2.4877084489 3.4355342114
H -4.9505517490 -0.0489084239 1.0599294023
H -5.9872957514 -1.3661044999 1.6534977501
H -5.4337238239 -0.0991634060 2.7610318688
H -2.5519439380 -3.0235935247 1.3736649903
H -1.8385462580 -1.3424658796 2.9446302327
H 0.0846634810 2.4637367245 2.4853531461
H -1.3909368087 2.7835347623 1.5253499760
H 1.7990710092 0.7826424816 1.4733963589
H 2.1371670119 0.8985161868 -2.8013050924
H 0.0060038553 2.1579265128 -2.9338882332
H -1.2511027079 2.7127086973 -0.8660280745
H 4.6730933083 -1.8492454271 -1.5279854802
H 6.7228262839 -1.5223202706 -2.9040209226
H 7.4806222091 0.7741996231 -3.4760049990
H 6.1945189142 2.7333629853 -2.6526166491
H 4.1622272292 2.4023885104 -1.2731581457
H -4.2246029539 -1.5162716241 -0.5966141749
H -4.4551595352 -1.9094234090 4.3276411744
H -3.3095107901 -3.0922958506 3.6620569329
H -5.0241981184 -3.1633448056 3.2086203622
