37
CONF22
C -2.2632046535 2.1208802774 -3.7842849509
C -2.0479835474 0.9510541930 -2.8756802499
C -2.9473918699 -0.1465207590 -2.9423817530
C -2.7378542499 -1.2062025537 -2.1014071390
C -3.5850375612 -2.4289556441 -2.0414899149
N -1.6822988792 -1.1421074512 -1.2527327352
C -0.8066611337 -0.0634697848 -1.2080712111
N -1.0208876515 0.9949191253 -2.0473412774
N 0.2217330402 -0.0167427177 -0.3831067085
N 0.3271814608 -1.1741370129 0.3682423744
C 1.2300521072 -1.1742331940 1.2901913224
C 1.4255619026 -2.4186071312 2.0984378821
C 2.1082988542 -0.0152982795 1.6138933438
C 3.4617565196 -0.0722768911 1.2705651949
C 4.3178524345 0.9849250103 1.5672825450
C 3.8216755710 2.1017121379 2.2333232687
C 2.4776867411 2.1521184768 2.5962273766
C 1.6013032543 1.1063008114 2.2953067435
C 0.1553719819 1.1784160423 2.6980089985
H -2.2503051330 1.7909981141 -4.8288732631
H -3.2511570205 2.5583176504 -3.6025508110
H -1.4956350996 2.8802623623 -3.6323670032
H -3.7783132601 -0.1489206973 -3.6360014457
H -4.0143441892 -2.5421296208 -1.0400031117
H -2.9796078830 -3.3192878652 -2.2430389817
H -4.3911077510 -2.3695144688 -2.7726133708
H -1.4763704522 -1.9042532220 -0.6143988224
H 2.4588595000 -2.7749885691 2.0050072071
H 0.7412007360 -3.2064841259 1.7760701487
H 1.2637400345 -2.2081335777 3.1631483226
H 3.8424839142 -0.9495884702 0.7544495797
H 5.3644425702 0.9326950362 1.2836003180
H 4.4794659934 2.9303362825 2.4776193948
H 2.0965359647 3.0202013881 3.1278397369
H -0.4841201242 1.2909620467 1.8149700882
H -0.0217429801 2.0257459677 3.3645151604
H -0.1611801202 0.2620080132 3.2076442457
