59
CONF320
C 4.9275942517 2.2248720532 4.8715555598
C 6.3544578810 2.3962244318 4.3430856142
C 6.1137596031 2.9071662435 2.9198327166
C 4.8858640244 2.1109611675 2.4039864800
C 4.2022599815 1.5539526304 3.6959272802
C 5.3124319795 0.9770610394 1.4722778617
C 4.1487428695 0.1914114473 0.9319739438
O 4.2306087505 -0.9957067223 0.6480486289
N 2.9495908873 0.8837885399 0.7344135727
C 2.7925129146 2.2542059580 0.9647282207
O 1.7505027899 2.8164734656 0.6557316319
C 3.9420694461 2.9966670626 1.5966371458
C 1.8147515304 0.1457764228 0.1486968839
C 1.8724058908 0.1491370395 -1.3787434704
C 0.7664011050 -0.7008789171 -2.0097724475
C -0.6300790188 -0.1278008556 -1.7700585488
N -1.6667775522 -0.7759104807 -2.5865873896
C -2.9182572409 -0.0104422020 -2.5087399446
C -3.9964378565 -0.6495514180 -3.3786693111
N -4.2200806095 -2.0341530469 -2.9620656328
C -2.9837125286 -2.8141906777 -3.0111047175
C -1.9103453742 -2.1568527596 -2.1479629283
C -5.2624792642 -2.3841913853 -2.1512424319
N -5.2481823877 -3.6294362555 -1.6139275474
C -6.3031485296 -3.9686246321 -0.8757873923
C -7.3764681345 -3.1165652446 -0.6421409232
C -7.2869182911 -1.8603760908 -1.2306001119
N -6.2532775281 -1.4748679789 -1.9762842015
H 4.4917287645 3.2118610455 5.0716045060
H 4.8669785601 1.6387791744 5.7935246670
H 6.9638720408 3.0791586571 4.9426869895
H 6.8615492576 1.4231145649 4.3185544685
H 6.9787079140 2.7964939847 2.2582202016
H 5.8605589508 3.9738574161 2.9597381145
H 4.3455359025 0.4680229653 3.7499272891
H 3.1230451690 1.7393614463 3.7046934488
H 5.8481894036 1.3897897496 0.6047229390
H 5.9826109298 0.2684218936 1.9664188348
H 3.5070104744 3.7911160563 2.2110111236
H 4.4917302911 3.4873073584 0.7797657964
H 0.9033975639 0.6207646458 0.5133383206
H 1.8578253587 -0.8778233468 0.5278600750
H 1.8041725152 1.1826507514 -1.7403873894
H 2.8473240091 -0.2420151266 -1.6900681077
H 0.8414325186 -1.7228009543 -1.6188686887
H 0.9344575870 -0.7579220617 -3.0918316962
H -0.6188914908 0.9365385078 -2.0404759391
H -0.8923450691 -0.1834101006 -0.6953413315
H -3.2903899971 0.0531142575 -1.4657338500
H -2.7297666503 1.0105504978 -2.8607933892
H -3.6641815448 -0.6613617422 -4.4247186154
H -4.9257500854 -0.0863488816 -3.3097365151
H -2.6446294275 -2.8448315439 -4.0546042364
H -2.2291462553 -2.1885350849 -1.0856893022
H -0.9872364002 -2.7375258256 -2.2392355600
H -6.2861801879 -4.9707126495 -0.4478723563
H -8.2241370033 -3.4101972330 -0.0360938816
H -8.0802390037 -1.1256266432 -1.0950074877
H -3.1727758499 -3.8316248705 -2.6725484292
