24
CONF19
C 2.0171911128 -0.7135842890 -1.2916384356
C 1.3113583737 -0.9556666231 0.0423030111
C -0.2038180400 -1.2256318505 -0.0090353631
C -1.1774733191 -0.2275518058 -0.6844604902
C -1.4226027059 1.0804522427 0.0871597895
C -2.0152410017 0.8639175302 1.4613597806
O -1.5928659559 1.4734910363 2.4238476006
O -0.2654862403 1.9057144464 0.1943212406
O -0.9118534246 -0.0098103049 -2.0479742405
O -0.6810716536 -1.4361132977 1.3252489214
O 1.6330119302 0.0679018589 0.9830908975
O 1.7340614749 0.5689941721 -1.8655677003
H 3.0984134597 -0.8136653838 -1.1295679848
H 1.7046143079 -1.4560888528 -2.0329348764
H 1.7461579604 -1.8777557015 0.4556243980
H -0.3301637186 -2.1686890911 -0.5594500441
H -2.1515521119 -0.7390776083 -0.6472160930
H -2.1971879109 1.6082783626 -0.5000163211
H -2.8922883329 0.1939849931 1.5265113863
H -0.3675616482 2.3547902505 1.0562060981
H -0.0299556854 0.4079175476 -2.1167701730
H -0.0616362761 -0.9799451172 1.9165686396
H 1.0654513127 0.8347660272 0.7608298115
H 1.9904975846 1.2433711406 -1.2227468471
