51
CONF9
C 4.0301790816 3.1639353766 0.5234444276
C 2.5496480553 3.0081835267 0.8162534143
C 2.0980830157 3.7258131980 2.0726128113
O 2.2501655334 1.5947850255 1.0606311788
C 1.9439170381 0.8158128930 0.0258180124
N 2.0879355223 1.2696002647 -1.2186368685
C 1.7657099865 0.3918435134 -2.1773285846
C 1.2958995814 -0.8787758603 -1.9484461099
C 1.1396602058 -1.2091101581 -0.5862719342
N 1.4943610403 -0.3948543464 0.3895878422
O 0.5829423745 -2.3964946106 -0.3258712053
C 0.1155478857 -2.6737854158 1.0312915671
C -1.3720383820 -2.8725025815 1.0161612168
C -1.8911533983 -4.1252668160 1.3411367295
C -3.2616322139 -4.3606682625 1.3446396265
C -4.1323076232 -3.3335184541 1.0022211855
C -3.6261976823 -2.0816305276 0.6707997133
C -2.2531313689 -1.8273049328 0.6824750908
C -1.7874633816 -0.4664426608 0.3124267260
C -1.8515070813 -0.0091634264 -0.9555026961
O -2.2790482008 -0.7726675195 -1.9681078593
C -2.2500813322 -0.1417260215 -3.2605729141
C -1.2446886868 0.4872350104 1.2965513102
O -0.9130023250 1.6355536431 1.0641142531
O -1.1500974177 -0.0741018439 2.5259719834
C -0.5154591772 0.7619969636 3.5145144187
C 1.9051451095 0.9334429140 -3.5856506328
F 0.9979462718 1.9158511472 -3.8099691217
F 1.6896094396 -0.0259138872 -4.5151038872
F 3.1259601022 1.4503716409 -3.8073588643
H 4.2671696377 4.2219172492 0.3742932666
H 4.3059598892 2.6191802000 -0.3824233164
H 4.6242297211 2.7908774151 1.3636872057
H 1.9539926079 3.3294090254 -0.0431068152
H 2.6591790984 3.3694659085 2.9424379302
H 2.2727842989 4.8003614352 1.9654515207
H 1.0312743027 3.5561679015 2.2398866038
H 1.0195049973 -1.5696113783 -2.7319648841
H 0.6226401062 -3.5910641721 1.3411276655
H 0.4131331109 -1.8550552506 1.6878518351
H -1.2059954250 -4.9306558492 1.5913251314
H -3.6438600533 -5.3426133453 1.6036410987
H -5.2041601803 -3.5033073858 0.9928475341
H -4.3013269517 -1.2739716850 0.4058290175
H -1.5240088250 1.0046636136 -1.1875774654
H -2.9445370733 0.7052015948 -3.2888846084
H -1.2368333065 0.1978284832 -3.5014259876
H -2.5650948106 -0.9014729492 -3.9757505581
H -1.0913193101 1.6788927670 3.6664484245
H -0.4950746185 0.1658977868 4.4270516179
H 0.4974419386 1.0173909388 3.1901714485
