38
CONF32
C 1.3358012059 -0.5509983162 -3.3988970302
N 2.2128933558 -0.9362187001 -2.2895975141
C 2.8051556384 -2.2465385636 -2.5720935101
C 1.4731177818 -0.9993590883 -1.0219344616
C 0.9928744905 0.3659795803 -0.5382857768
C 0.4082935002 0.2812813523 0.8798055804
C -0.8284765037 -0.6008584205 0.9286577004
C -0.8377950671 -1.7777007373 1.6774147202
C -1.9638024154 -2.5971779096 1.7216124243
C -3.0898549561 -2.2189980485 1.0040737079
Cl -4.5241671845 -3.2449059615 1.0483087323
C -3.1179968341 -1.0497218637 0.2522746279
C -1.9827488229 -0.2475214422 0.2235569438
C 0.0877342463 1.6332194779 1.4966597597
C -0.1230323990 2.7859292183 0.7384218159
C -0.4464171236 3.9736210969 1.3864864835
C -0.5478376581 3.9799475981 2.7720297070
C -0.3181808617 2.7862039368 3.4491511516
N -0.0092404714 1.6374566083 2.8378278375
H 0.9498573394 0.4617439655 -3.2545809791
H 1.9058956660 -0.5634740453 -4.3333253196
H 0.4747772295 -1.2392092573 -3.5098607868
H 3.3769348747 -2.1999329866 -3.5047209424
H 2.0418450532 -3.0420739271 -2.6761553908
H 3.4857467883 -2.5295411616 -1.7622005952
H 2.1481591106 -1.4219161662 -0.2657932884
H 0.6097922246 -1.6908457370 -1.1034883242
H 0.2377387167 0.7670992027 -1.2223621098
H 1.8385964088 1.0648702289 -0.5363013988
H 1.1600122820 -0.1788399779 1.5324629606
H 0.0490659751 -2.0673982158 2.2335965674
H -1.9601860409 -3.5117911753 2.3039356971
H -4.0088558990 -0.7686552578 -0.2981468666
H -2.0057694465 0.6699717859 -0.3580279329
H -0.0361345696 2.7616973086 -0.3415654574
H -0.6144914495 4.8804942701 0.8138334747
H -0.7955834340 4.8830641409 3.3191387264
H -0.3837212592 2.7510974841 4.5356241903
