23
CONF5
C -1.3659844254 -0.3299580293 0.6196011725
C -1.3605037615 0.6798829637 -0.3338965717
C -2.5610248365 1.0892496958 -0.9166311146
C -3.7572121160 0.4959792220 -0.5485645159
C -3.7653168414 -0.5165360883 0.4079012528
C -2.5669916960 -0.9264710593 0.9892945506
Br -2.5013658865 -2.3022882283 2.2986392044
Br -5.4381990065 -1.2920588876 0.8697805632
Br -2.5575826502 2.4688330268 -2.2218036127
O -0.2152292551 1.3149684759 -0.7470778279
C 0.9805183893 0.9293575716 -0.1987732281
C 1.7503627205 -0.0577958973 -0.8206772560
C 3.0104629797 -0.3990143937 -0.3138491479
C 3.4751829487 0.2645162181 0.8277252986
C 2.7141558901 1.2445193118 1.4535196119
C 1.4706680116 1.5703374769 0.9363850541
Br 0.4170916944 2.8992509407 1.7838192495
Br 5.1697414533 -0.1296583932 1.5898612243
Br 4.0565480238 -1.7278400632 -1.1572662393
Br 1.0212539624 -0.8994468196 -2.3500916239
H 3.0903717480 1.7472643298 2.3350656365
H -4.6846537364 0.8189820504 -1.0049199467
H -0.4389155155 -0.6555998355 1.0773593760
