35
CONF1146
C -1.6308600517 2.3346564688 1.7342610663
C -2.2217739016 2.7979606541 0.4240883084
C -1.3490594024 2.6622640997 -0.7996933119
Br 0.2226458004 3.8755951011 -0.6360643381
Br -3.8648971510 1.7223394852 0.0198554376
O -1.2400050357 0.9408619672 1.6619484242
P 0.2739267776 0.4900508525 1.8974783146
O 1.0544894243 1.2014742135 2.9322505011
O 0.8504633422 0.5755534281 0.4012707475
C 2.2735186531 0.4497479812 0.1826862982
C 2.5204595910 0.5663756337 -1.3005844947
C 3.9789672776 0.5104230829 -1.6821351157
Br 4.8966046205 2.1714394518 -1.0748484345
Br 1.6592019451 -0.9848013590 -2.2336566336
O 0.1220751458 -1.0624972670 2.2282528168
C -0.5531081945 -1.9572548737 1.3103335625
C -0.2039392419 -3.3764747594 1.6793480477
C -0.3735220325 -3.7450308771 3.1330215158
Br -2.2943032153 -3.6001338851 3.6407129433
Br 1.7326009299 -3.7146631047 1.2791273888
H -2.3656184088 2.4239276928 2.5367351139
H -0.7667528967 2.9652639733 1.9744608180
H -2.5913329524 3.8180087510 0.5450648335
H -0.9382641086 1.6605674911 -0.9157021166
H -1.8631149915 2.9877986999 -1.7009310871
H 2.6367373630 -0.5099811231 0.5691933634
H 2.7885246213 1.2725692286 0.6919979979
H 2.0192879108 1.4414131704 -1.7174114744
H 4.5061424421 -0.3170789932 -1.2074873702
H 4.1141004107 0.4945173590 -2.7608036329
H -1.6360514638 -1.8232853683 1.4158477627
H -0.2571530920 -1.7442648256 0.2789881486
H -0.7408647119 -4.0599626088 1.0196979067
H 0.1604786681 -3.0711900036 3.8000711152
H -0.1064711345 -4.7822531508 3.3212157837
