26
CONF5
C 2.6400460944 -1.8630534500 -1.0661426981
C 2.0552667809 -0.5213240104 -1.4037081417
C 1.2453614006 0.1871085092 -0.6067176507
C 0.7252131564 -0.1843108236 0.7573307770
C -0.7406146614 -0.5065308615 0.6777408605
C -1.7876210978 0.2382880988 1.0908165237
C -3.1932337639 -0.2584805501 0.8812508290
C -1.6213163714 1.5336581868 1.7367127642
C -2.6160219104 2.3216829027 2.1681997513
C 2.4530814762 0.0006980886 -2.7568256677
H 3.7362261075 -1.8176532612 -1.0859920716
H 2.3339246501 -2.2391295243 -0.0890920195
H 2.3465255087 -2.6038700418 -1.8205095631
H 0.8671656046 1.1375716914 -0.9831396479
H 1.2586768510 -1.0544556296 1.1530519665
H 0.9159553687 0.6373052501 1.4545965190
H -0.9600343157 -1.4473344168 0.1734173352
H -3.7692493802 0.4405598957 0.2637458701
H -3.7223830622 -0.3578241561 1.8360828841
H -3.1940880624 -1.2323920923 0.3873821329
H -0.6026156470 1.8883430818 1.8683748533
H -3.6609720860 2.0458086190 2.0715430245
H -2.4044126619 3.2774726562 2.6350909615
H 2.1414025638 -0.6930144102 -3.5481294348
H 2.0097538840 0.9780457416 -2.9619253460
H 3.5439627744 0.0928305904 -2.8331547113
