29
CONF3
C -0.4523611133 2.6570946823 3.4568490084
C -1.5407006715 1.6931926754 2.9917553873
N -1.0533499246 0.7142250326 2.0229394485
C -0.8790666487 0.9684612587 0.7152641334
N -0.2806724314 0.0086360551 -0.0212954823
C -0.1309686021 0.3116796813 -1.3072603108
N -0.5317067851 1.4669096555 -1.9084981314
C -1.1107349730 2.2912107156 -1.0624778225
N -1.3271377936 2.1540693465 0.2296617952
Cl -1.6750304063 3.8121737119 -1.7603624582
N 0.4707688081 -0.5840091602 -2.1299502016
C 1.0774694240 -1.8477403403 -1.7125901755
C 1.8642654984 -2.3986753428 -2.9138003084
C 0.0221547906 -2.8689318161 -1.2559527574
C 2.0427217194 -1.6170117148 -0.6154778077
N 2.8428757057 -1.4959320692 0.2090750649
H 0.3785867707 2.1148785767 3.9181929936
H -0.0664765501 3.2344975314 2.6122747129
H -0.8607018271 3.3552351941 4.1939676602
H -2.3678676654 2.2424741439 2.5350153458
H -1.9430184277 1.1297404205 3.8395850152
H -0.6087465975 -0.1252869116 2.3626486590
H 0.6725946257 -0.2520122230 -3.0607681906
H 1.1694765130 -2.5738504728 -3.7405302355
H 2.3347327929 -3.3451071140 -2.6426455295
H 2.6399857676 -1.6958645106 -3.2291994135
H -0.5494688982 -2.4825508374 -0.4123745570
H 0.5138635745 -3.7998046770 -0.9619018072
H -0.6514858547 -3.0677015656 -2.0938441214
