39
CONF325
C 7.4146991959 2.9513993660 0.1103054699
C 6.9359569660 1.5494383625 0.4799815539
C 6.6225185863 0.6974762469 -0.7512569487
C 6.1084834743 -0.7049165159 -0.4062447551
C 4.6593810611 -0.7298883219 0.1086835481
C 4.3549291613 -1.9636483706 0.9691873312
C 4.9627163790 -1.8868925768 2.3681663044
C 3.7163313958 -0.6551097244 -1.0869258641
O 2.3525717692 -0.3574944413 -0.6640776255
C 2.0966266031 0.9451681554 -0.4347736199
O 2.8845765246 1.8467656906 -0.5909179646
C 0.6707313615 1.1301267222 -0.0138572390
C -0.3095793721 0.4832553282 -0.7592209338
C -1.6535621762 0.6970684773 -0.4998462043
C -2.0478768611 1.5530834376 0.5327504432
C -1.0619967468 2.1843627215 1.3129672271
C 0.2959148062 1.9740407377 1.0362694698
Br 1.6325991186 2.7517133179 2.1328595751
Br -1.5757120314 3.3158524345 2.7400075123
Br -3.8832575250 1.8419216374 0.8730532247
Br -2.9094873540 -0.2141657738 -1.5936782320
H 8.3168550432 2.9084787190 -0.5097039095
H 6.6451839666 3.4869506887 -0.4555026379
H 7.6478373320 3.5426061503 1.0008401953
H 7.7008916050 1.0401489817 1.0816188000
H 6.0453779438 1.6297161679 1.1153144153
H 5.8878164364 1.2271533492 -1.3725165617
H 7.5323860234 0.6092503236 -1.3589339430
H 6.7709438878 -1.1476605824 0.3470388986
H 6.1781752546 -1.3598724802 -1.2869629304
H 4.4850079736 0.1679352633 0.7155685875
H 4.7205724580 -2.8587522182 0.4458771080
H 3.2678658576 -2.0767481094 1.0597012121
H 4.7388255537 -2.7887834817 2.9452712977
H 6.0512279450 -1.7775017083 2.3365742464
H 4.5591730966 -1.0291048952 2.9167774957
H 3.6394459992 -1.6257740093 -1.5865191421
H 4.0307646292 0.1073775538 -1.8042757729
H -0.0142671838 -0.1831825937 -1.5590806673
