38
CONF6
C -1.3957292962 3.9225709837 -1.3553266516
N -0.5718693379 2.8148849998 -0.8725847169
C -1.0369805606 1.8419336332 -0.0988170888
C -0.3662982872 0.7720023937 0.4978034109
C -1.3246801817 0.0705741206 1.2853077501
O -1.2061392317 -0.9210482958 2.0081712903
C -2.6757385398 0.7827110332 1.0586507210
O -2.3526430151 1.8982554769 0.1813687818
C -3.7040064701 -0.1132354364 0.4358909780
C -3.6729910281 -0.3955666207 -0.9319870952
C -4.5920428700 -1.2835735091 -1.4810210835
C -5.5383999598 -1.9063587110 -0.6680655396
C -5.5653618817 -1.6324929786 0.6968719998
C -4.6537070238 -0.7348358263 1.2474404817
C 1.0439098966 0.4279010805 0.3529999378
C 1.7033851991 0.5401392013 -0.8784102159
C 3.0521558853 0.2094682694 -0.9873367138
C 3.7674841585 -0.2645999819 0.1094510670
C 3.1101755405 -0.3991866247 1.3298243411
C 1.7706390153 -0.0558411276 1.4547088733
C 3.7064299578 0.3082073321 -2.3320304073
F 3.3985872657 -0.7576095699 -3.1249586263
F 3.3117256779 1.4130658216 -3.0159148610
F 5.0561431402 0.3533099730 -2.2544422774
H -1.7260781381 4.5633169880 -0.5307083224
H -0.7941891990 4.5110570756 -2.0481964162
H -2.2739681592 3.5406170439 -1.8817819091
H 0.4268251393 2.8645804341 -1.0037521683
H -3.0370007290 1.2064264087 2.0020075364
H -2.9342001299 0.0832477018 -1.5678048155
H -4.5676668099 -1.4930890943 -2.5459153069
H -6.2535901728 -2.5999426139 -1.0988399444
H -6.3025408209 -2.1103996731 1.3344488023
H -4.6810376958 -0.5126185920 2.3103156851
H 4.8155851941 -0.5238525626 0.0158480511
H 3.6544329125 -0.7658418962 2.1940773332
H 1.2727669313 -0.1512031718 2.4127281443
H 1.1577849974 0.8554360999 -1.7624521479
