23
CONF137
C 1.9353764350 -1.6567943792 -1.3355054752
C 1.6538259640 -0.9378662129 -0.0360875813
C 0.2294772162 -0.2703456578 0.0324748037
C -0.9564306428 -1.2445329848 0.3141069421
C -2.4047233741 -0.6975177612 0.0263356492
C -2.8402405476 0.6196165884 0.7317617231
C -4.3754936298 0.8314026495 0.7195843248
F -4.8207307309 0.8547726206 -0.5627052483
F -4.6234923312 2.0379597940 1.2885328869
F -2.4598484343 0.5684558751 2.0355750025
F -2.2344938164 1.6673472663 0.1328116584
F -2.5530078779 -0.5584891206 -1.3064725884
F -3.2552408035 -1.6761218896 0.4533541694
F -0.9026321210 -1.6520440408 1.5957155201
F -0.8209907544 -2.3371555688 -0.4907574605
F 0.2365461967 0.6522524805 1.0182660289
F 0.0103675878 0.3609206363 -1.1532296803
F 2.5390821035 0.0827600701 0.1340688416
F 1.7651872496 -1.7704720691 1.0353338925
I 3.9367533765 -2.4776297770 -1.3675819515
H 1.8683839180 -0.9599125766 -2.1686995417
H 1.2581084695 -2.4942370913 -1.4774024821
H -4.8986145206 0.0487655324 1.2805373036
