70
CONF15
C -2.7685918826 -0.8095413176 -1.2401607221
C -4.1596462949 -0.2477424095 -1.6013094212
C -5.1981340129 -1.2049891433 -1.1139109541
C -6.4779491134 -1.5315435222 -1.4871400506
N -6.9753133827 -2.4969420815 -0.6153474600
C -6.0184205546 -2.8067381455 0.3237133337
C -5.9798230404 -3.6955871624 1.4007419960
C -4.7950532955 -3.7392108442 2.1314480976
C -3.6723770071 -2.9401821340 1.8192341300
C -3.7105532312 -2.0481212180 0.7522831591
C -4.8990534497 -2.0028587428 0.0223180929
C -2.6015895081 -1.1272261259 0.2803743383
C -1.2113956139 -1.7190668168 0.5471845987
C -0.1051464406 -0.8384206659 -0.0409525981
C -0.3906788037 -0.6084402227 -1.5447662264
N -1.6842022341 0.0347804871 -1.7750090982
C -1.7086289226 1.4396222434 -1.3298535657
C -0.6597797353 2.2494220851 -2.0296322286
C 0.2006520531 3.0571435433 -1.4136671185
C 1.2560182492 -1.4862975998 0.0703703690
O 1.5057546360 -2.5286049293 -0.5346066301
N 2.2645165284 -0.8076538171 0.7375302014
C 3.6561777868 -1.2308891692 0.4717069913
C 4.1377315018 -0.8685670361 -0.9355216499
C 3.9828320984 0.6024577289 -1.3087898850
N 4.5995818968 1.5351871307 -0.3510981785
C 6.0491852409 1.3465190156 -0.2438721593
C 4.2948390648 2.9165473127 -0.7386503912
C 1.9673740173 0.1254864663 1.7851632506
O 0.9897236040 -0.0388040891 2.5187431857
N 2.8506867452 1.1308622212 1.8994861994
C 2.7059841575 2.1403036720 2.9422743668
C 1.7440758973 3.2579436681 2.5445327168
H -2.6733607689 -1.7746961828 -1.7637345017
H -4.3107237528 0.7235608669 -1.1124964841
H -4.2138112572 -0.0799534921 -2.6826752492
H -7.0926892527 -1.1664025821 -2.2982453716
H -7.8895520160 -2.9129030758 -0.6825969338
H -6.8235549927 -4.3271668538 1.6599214440
H -4.7275388464 -4.4207550470 2.9743536006
H -2.7801989339 -3.0386507391 2.4295182246
H -2.6881842922 -0.1776043738 0.8322273279
H -1.0501589704 -1.8366984142 1.6232079583
H -1.1548903004 -2.7163345205 0.0899275593
H -0.1056239229 0.1286128405 0.4647175867
H 0.4010786237 0.0065765933 -1.9875563187
H -0.3897969911 -1.5784986255 -2.0557372786
H -2.6854538408 1.8572732546 -1.6016937695
H -1.5996958690 1.5670702152 -0.2386428751
H -0.6470438515 2.1648129512 -3.1168619926
H 0.2116540545 3.1474500892 -0.3295015274
H 0.9133867437 3.6572717745 -1.9714337120
H 3.7127981976 -2.3162676170 0.6022524936
H 4.2908039820 -0.7737934266 1.2330340967
H 5.1826011677 -1.1873723117 -1.0218699412
H 3.5766866557 -1.4533234060 -1.6714106223
H 2.9129094785 0.8498162264 -1.3536299840
H 4.3914253982 0.7586263773 -2.3250079738
H 6.4590665910 2.0920120474 0.4441420007
H 6.5544480137 1.4573014612 -1.2203297030
H 6.2813740334 0.3552122043 0.1544264418
H 4.7101794047 3.1713532035 -1.7298942577
H 3.2090498877 3.0560165952 -0.7734941151
H 4.7111162450 3.6085104756 0.0006601107
H 3.5538838164 1.2849735893 1.1495354382
H 2.3581336844 1.6489415172 3.8564599518
H 3.7020424627 2.5506756335 3.1406647916
H 1.6710982123 3.9988413750 3.3469441502
H 0.7454542856 2.8538714934 2.3533977447
H 2.0942884528 3.7627911739 1.6386057038
