26
CONF11
C -3.1633349998 0.2793122220 0.2938448867
C -1.8474588879 -0.1767423955 0.9108029161
C -0.6508703853 -0.0259541765 -0.0449160640
C 0.6324860460 -0.6623340155 0.5280372640
C 1.8408134524 -0.4789228312 -0.3937193837
C 3.1204093876 -1.0412599115 0.2148417630
O 4.1872119387 -0.9829512148 -0.7467994012
O 1.5697416186 -1.1648713634 -1.6275946075
O 1.0051265043 -0.0578874342 1.7677825621
O -1.0471278299 -0.6531996667 -1.2650935118
O -1.6120594867 0.5578127482 2.1293482232
O -3.1424807956 1.6870967055 0.0114950493
H -3.3922675810 -0.3076780138 -0.6012141711
H -3.9589693766 0.1273494311 1.0300672282
H -1.9422718995 -1.2315925878 1.1990869859
H -0.4539999529 1.0510330769 -0.1993648465
H 0.4487803555 -1.7444630431 0.6559016893
H 1.9737739675 0.5995916875 -0.5860169377
H 2.9781371717 -2.1020851191 0.4491098354
H 3.3808775380 -0.5027628593 1.1315029267
H 2.3911258299 -1.1473188714 -2.1402043377
H 0.1776643408 0.2142267943 2.2079155358
H -0.2359004752 -0.8275724143 -1.7731057920
H -1.7609325203 1.4923569114 1.9152153138
H 4.4824614434 -0.0650106222 -0.8032110143
H -2.6647184866 1.8167731607 -0.8173988007
