39
CONF1
C 1.7148541120 -2.5649389357 0.3844278994
C 0.8228565548 -1.5021744695 -0.2674760177
C -0.6377163693 -1.9620513751 -0.1725929778
C -1.6553253396 -1.1620868763 -0.9825851117
C -2.0074138611 0.2363090806 -0.4265883598
C -0.8922786223 1.2323205385 -0.5942246355
C 0.3976698829 1.0703544707 -0.2937853226
C 1.0635209745 -0.1261635193 0.3779415275
C 2.5551463362 0.2716323051 0.4500183835
C 2.5430183219 1.8016055975 0.4757008485
C 1.4275684265 2.1677561489 -0.5167861335
C 1.9261918616 2.1758000494 -1.9688782960
C -2.5722332714 0.1608338530 0.9878764937
C -2.0775319289 0.8555496534 2.0132609841
C -3.7635824426 -0.7419385241 1.1585842799
H 2.7783522678 -2.3402416748 0.2712385711
H 1.5322175501 -3.5478271357 -0.0616929047
H 1.4983968691 -2.6400070705 1.4572613434
H 1.0932874646 -1.4217906160 -1.3321371315
H -0.6827161562 -3.0057933959 -0.5093603639
H -0.9306408149 -1.9688541166 0.8878337609
H -2.5792020495 -1.7475404700 -1.0576769895
H -1.2880797173 -1.0327638003 -2.0079466852
H -2.8437648636 0.5922503503 -1.0486709924
H -1.1883592918 2.2026634490 -0.9942024627
H 0.6685033260 -0.1815628379 1.4062177201
H 3.0666907483 -0.1638210465 1.3125431948
H 3.0741673243 -0.0847760741 -0.4489895002
H 3.5093408163 2.2450466156 0.2139313948
H 2.2741781554 2.1524155555 1.4796678100
H 0.9966670804 3.1508477607 -0.2941188704
H 2.6953203927 2.9431831082 -2.1112078184
H 2.3538015148 1.2072381620 -2.2477816103
H 1.0996716401 2.3800551125 -2.6557649517
H -1.2192577623 1.5073151802 1.8908510385
H -2.5270910630 0.7896086979 2.9996019430
H -4.5213299055 -0.5427100758 0.3907386711
H -3.4826370681 -1.7970735430 1.0580132731
H -4.2222616751 -0.6086692429 2.1410184977
