40
CONF96
C 3.0276622334 2.3852391942 -4.6037679287
C 1.7550922328 2.1339756320 -3.8338566543
O 2.1408502931 1.7065965726 -2.4834669807
P 1.0344884693 1.5151267533 -1.3504925952
S -0.1738979800 2.9957471372 -1.0149561277
O 1.9661943680 0.9916913012 -0.1741472935
C 1.8146677225 1.4480228701 1.2139191617
C 2.6966884203 0.5675486411 2.0626769875
O 0.3221312919 0.1516212791 -1.9576802106
C -0.6915110591 -0.5163928282 -1.3299767713
N -0.9075359742 -0.2953854957 -0.0464929103
C -1.9180157495 -0.9898822323 0.5118715521
N -2.6840924816 -1.8789861859 -0.1213374013
C -2.4340532665 -2.0979156887 -1.4306674066
C -3.2988870390 -3.1007447694 -2.1242292500
C -1.4252881355 -1.4161361550 -2.0955269589
C -2.1904333821 -0.7349812355 1.9740028607
C -2.4992631648 0.7458469035 2.2233161479
C -1.0077471655 -1.2060673296 2.8303876282
H 2.7717769448 2.7017435353 -5.6192825012
H 3.6327802194 1.4767268257 -4.6658115787
H 3.6167131034 3.1759699096 -4.1315257081
H 1.1467504175 3.0402337381 -3.7478319219
H 1.1563406187 1.3364917731 -4.2859174525
H 0.7613852652 1.3591484906 1.4917897044
H 2.1163105879 2.4983728245 1.2587843711
H 2.6086075105 0.8813013025 3.1072972495
H 3.7440485989 0.6533108257 1.7608622172
H 2.3878917498 -0.4789555109 1.9875602316
H -4.3504127687 -2.8098416940 -2.0347601485
H -3.1927212752 -4.0776080929 -1.6409490742
H -3.0382173051 -3.1929462583 -3.1798257923
H -1.2146609646 -1.5663870895 -3.1471466230
H -2.7482714582 0.9003866515 3.2777575827
H -1.6320646324 1.3671085077 1.9791441924
H -3.3451577580 1.0827817806 1.6157501599
H -0.7881187784 -2.2644356133 2.6578603431
H -0.1106629638 -0.6246028458 2.5971298389
H -3.0713830717 -1.3313548975 2.2318872859
H -1.2393807464 -1.0695149339 3.8912723888
