60
CONF19
C -2.6875019499 3.0744690219 0.0606167035
Si -1.3025406230 1.8583239099 0.3596107956
C -1.2257888994 1.3081834506 2.1357571053
O 0.1092465658 2.6009043664 -0.0259824536
Si 1.3661132246 2.6094665025 -1.0882197004
C 2.1298385736 4.3078572318 -1.0164080740
C 0.7871365361 2.1644531246 -2.8020104711
O 2.4857679774 1.4951008112 -0.6202829030
Si 2.9654852082 0.7936686965 0.7915324446
C 4.6665708176 0.0875390126 0.4959116757
C 2.9326843786 2.0310837193 2.1840470440
O 1.9220714195 -0.4154138206 1.1887263843
Si 1.4150218625 -1.8575348551 0.5811701156
C 2.5567090179 -3.2068576355 1.1769174408
C 1.3309844881 -1.7643002410 -1.2814291684
O -0.0793012991 -2.1248821106 1.2156900611
Si -1.5137236126 -2.7928209467 0.7720580381
C -1.2752316227 -4.5958328663 0.3601832064
C -2.7051847893 -2.5437355442 2.1834381714
O -2.0791865001 -2.0608279517 -0.5890759763
Si -2.5302152088 -0.5914362133 -1.1697701966
C -4.2620808359 -0.2124458493 -0.5792893304
C -2.4152062553 -0.6635629823 -3.0254116154
O -1.4778101331 0.5517230065 -0.6302574273
H -2.5061039656 4.0006040919 0.6163230239
H -2.7592577183 3.3313321820 -1.0019808993
H -3.6559438546 2.6764815437 0.3800898758
H -0.4756306588 0.5199646529 2.2594118552
H -2.1928992117 0.9162189011 2.4695065996
H -0.9630096710 2.1442196176 2.7927059714
H 2.4267445433 4.5530273709 0.0088381185
H 1.4216703635 5.0731646709 -1.3507541172
H 3.0207127891 4.3679916560 -1.6499923025
H 0.0674031658 2.9002063518 -3.1766332904
H 1.6280675545 2.1252017460 -3.5020929426
H 0.2981155468 1.1855849962 -2.8020823596
H 4.6575516419 -0.6147185695 -0.3448675158
H 5.0326079101 -0.4465150332 1.3790715895
H 5.3838161459 0.8793104001 0.2559522044
H 3.6268996519 2.8572675248 1.9975110978
H 1.9272993937 2.4496652850 2.2999209087
H 3.2129126735 1.5602592313 3.1319837401
H 2.5828956501 -3.2274776757 2.2715245504
H 3.5799016755 -3.0543898631 0.8172693026
H 2.2207146197 -4.1900065242 0.8295476547
H 0.6758588938 -0.9385998240 -1.5755139343
H 2.3193628971 -1.5767927569 -1.7149074627
H 0.9362458045 -2.6872022387 -1.7198805729
H -0.8555912136 -5.1410405658 1.2120807196
H -2.2253269722 -5.0681062937 0.0895080653
H -0.5930371062 -4.7170181735 -0.4882764709
H -2.3716715310 -3.0820358534 3.0767015542
H -3.7067218532 -2.9020786580 1.9236234528
H -2.7794618073 -1.4839059956 2.4472290025
H -4.2976043260 -0.1166753569 0.5118317113
H -4.6436942631 0.7175248792 -1.0133013572
H -4.9452832293 -1.0206186027 -0.8615438628
H -3.0953322049 -1.4185910612 -3.4328892287
H -1.3990839513 -0.9273487433 -3.3372009411
H -2.6669855326 0.3019758611 -3.4762350653
