34
CONF143
C -4.1473270612 -1.9400047040 0.4381514962
C -3.5614638474 -0.5518726517 0.4327061492
O -2.8002103209 -0.4136625189 -0.8295262149
P -1.7613573305 0.7446464729 -1.1237946270
S -1.5946388420 1.2796579525 -2.9724999722
O -2.1205977083 1.8323222954 -0.0171349193
C -1.6017026641 3.2076014191 -0.0654298528
C -0.1373248749 3.2707419167 0.2996141930
O -0.2711561599 0.1238142032 -0.6806971969
N -0.2584016498 -0.3278048751 0.6414771669
C 0.8852934229 -0.8351841705 0.9774288516
C 0.8488107550 -1.3223525842 2.3299419119
N 0.8461969696 -1.7152805473 3.4178246859
C 2.1418155312 -1.0042766324 0.2295371861
C 2.5559557094 -0.1040971468 -0.7648534189
C 3.7635339920 -0.3090252668 -1.4193488487
C 4.5615485912 -1.4078768735 -1.1072348274
C 4.1574718226 -2.3011477842 -0.1179114141
C 2.9621613791 -2.0955512248 0.5569799445
H -4.7980478496 -2.0939412334 -0.4267091658
H -3.3574396024 -2.6959100111 0.4322850593
H -4.7426774835 -2.0669002924 1.3475273015
H -4.3325403572 0.2226918776 0.4310734524
H -2.8807439398 -0.3924057786 1.2710899842
H -2.2226499687 3.7369300800 0.6594492285
H -1.7946153445 3.6072737483 -1.0658372649
H 0.0453843757 2.7953762147 1.2676154876
H 0.1603329323 4.3217889349 0.3674757202
H 0.4860173205 2.7898719809 -0.4593228983
H 1.9531366685 0.7588215923 -1.0105069679
H 4.0826674395 0.3969787540 -2.1789054745
H 5.4999046937 -1.5632450900 -1.6297412358
H 4.7762578222 -3.1559102123 0.1337974230
H 2.6564053995 -2.7920671460 1.3313906692
