54
CONF204
C -5.2094051048 -1.5733370195 -0.5412482405
C -3.7309233153 -1.5721421808 -0.9387861450
C -3.2501402791 -2.9993089620 -1.2050438591
C -2.8802807279 -0.8864587154 0.1536075169
C -1.3784275984 -1.0878332249 -0.1013888706
O -0.7385856842 -1.9608316126 0.4831027114
N -0.8434381076 -0.2771703836 -1.0441501938
C 0.5834359253 -0.2779383924 -1.3486221717
C 0.7771543587 0.1386824782 -2.8146100962
C -0.0393189962 -0.7112215925 -3.7602046276
O -0.7996407044 -0.2763634427 -4.6010583458
O 0.1773105547 -2.0213512244 -3.5556083489
C -0.5853352577 -2.9230554696 -4.3970870282
C 1.3684253960 0.6202264360 -0.4114779093
C 2.5503623196 0.1606506603 0.1680043528
C 3.2903778830 0.9699407522 1.0260492432
C 2.8280901021 2.2512061708 1.2957972734
C 1.6558935882 2.7395804018 0.7305715891
C 0.9314727962 1.9145765892 -0.1223429528
Cl 3.7405204037 3.2793459326 2.3963043082
N -3.2384717203 0.5269122067 0.2303425050
C -2.6538077417 1.4188840967 1.0794133314
O -2.8234784637 2.6304549552 1.0270103130
O -1.8734461841 0.7810444568 1.9782156672
C -1.1595633813 1.6123892600 2.9550339572
C -2.0938477518 1.9581855743 4.0992739022
C 0.0357710272 0.7880935828 3.3864764013
H -5.8107999008 -2.0212639543 -1.3380841644
H -5.3527081745 -2.1676387853 0.3683497382
H -5.5930730847 -0.5663932655 -0.3547924989
H -3.6067274092 -0.9886513126 -1.8636328866
H -3.8973005618 -3.4713847245 -1.9500877232
H -2.2239179336 -3.0243980493 -1.5831729526
H -3.0804851364 -1.3750520705 1.1147200062
H -1.4143361107 0.4703509754 -1.4150083987
H 0.9350106168 -1.3043593439 -1.2179711010
H 0.4852975270 1.1820810840 -2.9620830545
H 1.8377182910 0.0413344843 -3.0717495128
H -0.3094387788 -3.9246738780 -4.0702577145
H -0.3207005270 -2.7716553895 -5.4461555315
H -1.6550003826 -2.7518085406 -4.2549857286
H 2.8970100465 -0.8475108978 -0.0414078001
H 4.2026161393 0.6043361178 1.4836164007
H 1.3098233303 3.7416984381 0.9573738957
H 0.0086893874 2.2925252240 -0.5536032691
H -0.8354090737 2.5190702073 2.4348889612
H -2.9612116859 2.5176207085 3.7406903306
H -1.5617409287 2.5746439208 4.8303112938
H -2.4350491015 1.0454203478 4.5983665403
H -0.2905011619 -0.1281736507 3.8888238511
H 0.6455981839 1.3698557180 4.0839960056
H 0.6528538402 0.5203876423 2.5247006962
H -3.2907549721 -3.5987428951 -0.2886767016
H -3.7638016641 0.9386456170 -0.5270585626
