38
CONF16
C 1.7367369032 5.8038528884 0.8335733551
C 1.6493075294 4.4177889288 1.4325063837
C 2.9986147498 3.7961798694 1.7330416169
O 0.9698697690 3.5868007186 0.4133187342
C 0.3370559044 2.4883338155 0.8295179233
O 0.2216293855 2.1353286601 1.9829723182
C -0.1737285311 1.6751135734 -0.3896507001
C -1.3885658876 0.8478143027 0.0081042611
C -1.4530014236 -0.5301469110 -0.1730147803
C -2.6054629668 -1.2411271179 0.1612975952
C -3.6889803470 -0.5482552843 0.6779316568
C -3.6564554028 0.8296105761 0.8665440155
C -2.5000153794 1.5183879222 0.5266350610
Br -5.2807873068 -1.5126836926 1.1443377532
C 1.0127438716 0.8240520051 -0.8540696325
C 1.7680666246 0.0915675513 0.0659695678
C 2.8409876414 -0.6876423571 -0.3519780210
C 3.1493190647 -0.7267181743 -1.7062787165
C 2.4151487687 -0.0133293837 -2.6426646300
C 1.3444341721 0.7636887054 -2.2058391509
Br 4.6280093052 -1.7967942566 -2.2958614344
O -0.6277186308 2.5543955498 -1.4163580343
H 2.3349330069 5.7910141461 -0.0828121409
H 0.7416134537 6.1948953532 0.6058102737
H 2.2171321742 6.4747739542 1.5513809251
H 1.0122235950 4.4145487079 2.3216987369
H 3.5157912527 4.4018165273 2.4832495061
H 3.6125163784 3.7650589477 0.8273342430
H 2.8875577134 2.7821889619 2.1260045041
H -0.6067544633 -1.0712085664 -0.5812189926
H -2.6488547831 -2.3140497163 0.0152029469
H -4.5131736473 1.3555557329 1.2713993530
H -2.4665578239 2.5943702286 0.6671642289
H 1.5187677060 0.1166498632 1.1222240632
H 3.4221450501 -1.2527076198 0.3673671765
H 2.6661043405 -0.0571197563 -3.6961709838
H 0.0639597606 3.2155571468 -1.5683854460
H 0.7625029431 1.3198819114 -2.9315425920
