94
CONF104
C 10.1253759451 -0.3156578664 -3.1374304485
C 8.9910083487 -0.6511941462 -2.1887188228
C 8.2194372675 -1.9070362861 -2.6097406918
C 7.0949774287 -2.2159999236 -1.6764108948
C 5.8124384525 -1.8883337613 -1.9267166975
C 4.7279269302 -2.0710679947 -1.0043396584
C 3.4696127956 -1.6072731414 -1.2253074243
C 2.3867483998 -1.7591850659 -0.3041283925
C 1.1469739744 -1.2380307002 -0.4968441894
C 0.0548613709 -1.4166133593 0.4187983197
C -1.1617991656 -0.8665454492 0.2521453113
C -2.2909232846 -1.0465986489 1.2104646559
C -2.5779036973 0.1883680520 2.0748604870
C -2.8037418884 1.4681840543 1.2792836423
C -3.7112859304 2.4780327489 2.0168446386
C -3.8093726473 3.7648205862 1.1772207280
C -2.4126839322 4.2961405191 0.9111614519
C -1.5226661967 3.2405999409 0.2554863907
O -1.5155961690 2.0513794372 1.0619308009
C -0.0642312915 3.6961007173 0.1928671224
C 0.8973838097 2.6841665144 -0.4288341332
C 2.3380295006 3.1853813201 -0.3362240889
C 3.3131286422 2.3003008852 -1.0607651151
C 4.6067548976 2.8484187419 -1.5205149229
O 3.5258739728 2.5772042254 -2.4549793087
C 5.7793214699 1.9842886193 -1.6604551067
C 7.0221271482 2.3738855409 -1.3443481272
C 8.1890618282 1.4770763131 -1.3911049185
O 9.2092403749 1.6735472991 -0.7483367752
O 7.9973655706 0.4243902231 -2.2036271001
O 0.5350452363 2.3853145881 -1.7997090685
O -2.0531709439 2.9749180064 -1.0306276944
O -4.5321085364 4.7892037169 1.8726635483
C -5.0796546805 1.8774693817 2.1977597983
O -5.7852048726 1.4980850280 1.2821954004
O -5.4501842654 1.7973625554 3.4909414664
O -3.4502760755 -1.3640388784 0.3832856569
C -4.5286541672 -1.9567341564 1.0423652977
C -5.6936563106 -2.0131283585 0.0528598893
C -6.8543962073 -2.7726689083 0.7020138759
C -6.3778632792 -4.1239357359 1.2438004673
C -5.1853428087 -3.9350470951 2.1813406361
O -4.1373236107 -3.2644365356 1.4570406733
C -4.6159570183 -5.2413240807 2.6903244263
O -7.4311682556 -4.7544338698 1.9766049846
N -8.0153629284 -2.9954990753 -0.1660439250
O -5.3283965106 -2.6900696066 -1.1494065135
H 9.7443406440 -0.1908383195 -4.1558322412
H 10.8541007353 -1.1317946691 -3.1358893654
H 10.6308360534 0.6023202096 -2.8290177624
H 9.3572313510 -0.7517039108 -1.1615060653
H 8.9419382707 -2.7314019407 -2.6386875943
H 7.8424517424 -1.7529493496 -3.6277260854
H 7.3520945196 -2.6650923651 -0.7165230317
H 5.5694705814 -1.4201415403 -2.8821539414
H 4.9450003540 -2.5863540222 -0.0680127819
H 3.2635012398 -1.0744873361 -2.1551356259
H 2.5815774440 -2.3280119534 0.6059690335
H 0.9531424335 -0.6531123997 -1.3967950618
H 0.2408950417 -2.0374107835 1.2965167696
H -1.3594656321 -0.2366407817 -0.6145874323
H -2.0813487075 -1.8949674603 1.8727625713
H -3.4506370249 -0.0267530545 2.7014452499
H -1.7390925482 0.3403031561 2.7632089032
H -3.2747976786 1.2345704758 0.3145613413
H -3.2730268669 2.7170314976 2.9921741177
H -4.3114354861 3.5262255701 0.2301864760
H -1.9598499004 4.5939341304 1.8636556964
H -2.4680057143 5.1758823282 0.2632520352
H -0.0226635054 4.6330976575 -0.3764537171
H 0.2697489851 3.9146849709 1.2129807655
H 0.8124971759 1.7215068172 0.0876246834
H 2.6212420973 3.2318527374 0.7227275481
H 2.4083848890 4.2031316456 -0.7418427372
H 3.2704807592 1.2337882344 -0.8271829487
H 4.7907728389 3.9082840004 -1.3423977698
H 5.5917145071 0.9735693652 -2.0164815148
H 7.2191887153 3.3673748905 -0.9505597003
H 0.7580801893 3.1573372457 -2.3408594954
H -1.3307127753 2.5697190990 -1.5472891005
H -5.4773033224 4.6298722122 1.7550039744
H -6.3367145749 1.3959086453 3.5294124563
H -4.8440658892 -1.3802729574 1.9324888614
H -6.0067514224 -0.9795791204 -0.1638444809
H -7.1879220284 -2.1766546345 1.5638622297
H -6.0603034101 -4.7653945226 0.4046471776
H -5.5045460592 -3.3018951658 3.0279457417
H -3.7531692862 -5.0524180900 3.3352507178
H -5.3708768187 -5.7808118242 3.2670166867
H -4.3002437038 -5.8693947513 1.8506640760
H -8.2343694515 -4.5822840085 1.4595968929
H -8.4803596180 -2.1130572700 -0.3537814996
H -7.6936292992 -3.3467490059 -1.0638193815
H -4.5511687039 -2.2400109912 -1.5062205551
