94
CONF145
C 8.9488641124 -1.0518321884 -4.8121747562
C 7.8639275787 -1.6075330532 -3.9132644162
C 6.7278223328 -2.2795689999 -4.7040632489
C 5.6575540565 -2.7900691584 -3.8036643980
C 4.4536476645 -2.2060382652 -3.6451385926
C 3.5097577707 -2.6084014680 -2.6421716733
C 2.3309151519 -1.9787024324 -2.3968200561
C 1.4688179577 -2.3237063074 -1.3105755137
C 0.3184777391 -1.6702077279 -1.0012247775
C -0.4633173569 -1.9555687311 0.1683695737
C -1.5438536923 -1.2464265754 0.5439111475
C -2.2155316525 -1.4131069372 1.8699793484
C -1.7794390602 -0.3262308083 2.8574061638
C -2.0426937029 1.0979753289 2.3538649233
C -2.9469909713 1.9240929704 3.3018183580
C -3.0233998781 3.3762412493 2.8221324605
C -1.6227438153 3.9387452608 2.6156630291
C -0.8236770604 3.0539835378 1.6576618972
O -0.7602892532 1.7242890749 2.1936065025
C 0.6244080375 3.5241727465 1.5112431247
C 1.5403101367 2.6032977791 0.7066041602
C 2.8977896129 3.2788668518 0.5063367850
C 3.8904871592 2.4590540641 -0.2691780651
C 5.0256059127 1.7640318653 0.3864308083
O 5.2196040995 3.0048913059 -0.3195900476
C 5.6638594049 0.5748816747 -0.1959745164
C 6.2605817570 0.5599191579 -1.3937031663
C 6.9040572853 -0.6607783054 -1.9070142669
O 7.0826934061 -1.6865817043 -1.2740592757
O 7.2983969666 -0.4716676175 -3.1882208651
O 0.9270557092 2.3458177280 -0.5853039284
O -1.4981778668 3.0684086110 0.4112551760
O -3.7920819354 4.1785918199 3.7294953236
C -4.3019448779 1.2416433699 3.3203750965
O -4.6369291822 0.4676362065 4.2196096460
O -5.0270089803 1.4926382642 2.2565383609
O -3.6547606885 -1.3093390477 1.7729452213
C -4.3381390432 -2.5115428295 1.4866444220
C -5.7794871883 -2.3528392353 1.9810173089
C -6.6005013072 -1.3592046134 1.0962758434
C -5.8409930462 -0.9815994288 -0.1679123168
C -5.2150024815 -2.2319093869 -0.7905917025
O -4.2867770979 -2.8775877424 0.1228330181
C -4.4508084876 -1.9366213678 -2.0656028675
O -6.8011306803 -0.4011409668 -1.0624378787
N -6.9725804794 -0.1357079618 1.8385592302
O -5.8258402094 -2.0566844159 3.3650016018
H 9.4023787407 -1.8679211369 -5.3818180162
H 9.7286809924 -0.5661639501 -4.2196286465
H 8.5331324776 -0.3247266786 -5.5165468614
H 8.2776518099 -2.3072559426 -3.1814489755
H 7.1847384433 -3.0991017459 -5.2739445892
H 6.3237014375 -1.5527415434 -5.4186663632
H 5.9174494721 -3.6354979349 -3.1667176164
H 4.1918686017 -1.3476804335 -4.2655741379
H 3.7956178204 -3.4468661116 -2.0056384078
H 2.0368427278 -1.1390667269 -3.0279667791
H 1.7904839083 -3.1433068398 -0.6664344707
H -0.0148249118 -0.8492012532 -1.6377897935
H -0.1137489662 -2.7668087057 0.8093516592
H -1.9025953670 -0.4357841809 -0.0892672665
H -1.9554923858 -2.3930904857 2.2965402832
H -2.2952152921 -0.5039503822 3.8065697467
H -0.7057278452 -0.4361937661 3.0356206180
H -2.5439633929 1.0763354012 1.3787702641
H -2.5218062912 1.8905141473 4.3131228461
H -3.5717102007 3.4109779986 1.8779297516
H -1.0930707379 3.9741856686 3.5755676057
H -1.6839315444 4.9552059236 2.2144729890
H 0.5985417767 4.5154559991 1.0429239330
H 1.0606173071 3.6428814788 2.5085296197
H 1.6611433883 1.6495892951 1.2346472891
H 3.3266226352 3.5367020434 1.4813734746
H 2.7324298383 4.2162611283 -0.0419149060
H 3.5570193647 2.0474447431 -1.2238797929
H 5.0862187012 1.8494140547 1.4725928579
H 5.6525608761 -0.3279349216 0.4118119261
H 6.2884889995 1.4468071866 -2.0185498035
H 1.1527074145 1.4475392640 -0.8570217121
H -0.8634037512 2.6979143572 -0.2308361913
H -3.3315855991 4.1864494109 4.5795453051
H -5.8542467539 0.7965613994 2.1545503315
H -3.8558086516 -3.3422161976 2.0210362365
H -6.2389523678 -3.3407349660 1.8729487613
H -7.5098459381 -1.8836917760 0.7686871845
H -5.0516612119 -0.2559590669 0.0693665153
H -6.0289981618 -2.9447919341 -0.9995141010
H -5.1260139008 -1.5724320275 -2.8450923298
H -3.6760253342 -1.1854209069 -1.8781939355
H -3.9708739276 -2.8485209797 -2.4317302864
H -6.3302923452 0.1611599779 -1.6895060786
H -7.6330952114 0.3889018400 1.2696855717
H -7.4618812448 -0.3938752088 2.6919111779
H -5.3346594667 -1.2279481106 3.5332327210
