39
CONF2
C -4.7877972630 2.9532742253 -1.7430325818
N -3.7185460355 2.0694265960 -1.3094228884
C -2.7916656219 1.4558306283 -2.0736857565
C -1.9683503604 0.7333738403 -1.2242475416
C -2.5151475352 0.9853750626 0.0625149773
N -3.5749029064 1.7934985121 -0.0046003372
C -2.1437008277 0.4870512439 1.4114138911
F -0.8674354227 0.9150453267 1.7549200522
F -2.0962591918 -0.8852072883 1.4385535054
C -0.8667287677 -0.1000710184 -1.7616432050
O -0.8263699216 -0.3657706520 -2.9576133060
N 0.0680863359 -0.5120835249 -0.8445356173
C 1.1475305799 -1.3881655650 -1.0445159615
C 1.2424048423 -2.2265153254 -2.1614944384
C 2.2870557260 -3.1367172027 -2.2565143000
C 3.2420809686 -3.2381580000 -1.2508186167
C 3.1520618346 -2.4026307096 -0.1448258235
C 2.1269184525 -1.4635611450 -0.0310782498
C 2.0907106910 -0.5657315552 1.1490759220
C 1.9421038956 -1.1000489043 2.4318709178
C 1.9333336431 -0.2541500743 3.5269028110
C 2.0704487320 1.1206077417 3.3808872702
C 2.2198165889 1.6387457867 2.0996349273
C 2.2313168822 0.8174176089 0.9875010977
F 2.3573614619 2.9663078766 1.9631275206
F 2.0549354266 1.9261920769 4.4465418126
F 1.7815258662 -0.7503614242 4.7641977354
H -4.7831780744 2.9974093325 -2.8330148175
H -5.7486396989 2.5662628280 -1.3952063672
H -4.6338490641 3.9556743852 -1.3344675385
H -2.7561289258 1.5467063904 -3.1488366456
H -2.8374019906 0.8369547412 2.1820154071
H -0.0002864511 -0.1241041653 0.0864911396
H 0.4951912087 -2.1607515288 -2.9385941971
H 2.3453422061 -3.7791319075 -3.1292035662
H 4.0535121431 -3.9535601216 -1.3285325077
H 3.8982335115 -2.4501368242 0.6424690243
H 1.8155230947 -2.1659617338 2.5827692901
H 2.3608941687 1.2576648428 0.0049965809
