49
CONF3
C -5.5956170674 -0.1106615482 -2.3811633921
C -4.3613796946 -0.8502754672 -1.8572279689
C -3.4336034338 -1.2276270808 -3.0159494385
C -3.6181650971 0.0074253478 -0.8312840623
C -4.3526758320 0.3331870834 0.5001822835
C -4.4422394200 -1.0778567646 1.1593312053
C -3.1036601053 -1.7533556057 0.7398466056
C -2.4049948562 -0.6486554839 -0.1106814974
C -2.0534389639 0.4553394878 0.8593539315
C -3.2558074649 1.0638036189 1.2344314139
C -3.2825027212 2.0845459575 2.1702568394
C -2.0645678882 2.4998162033 2.7136681766
C -0.8583841741 1.9005449270 2.3631711606
C -0.8444417773 0.8471532725 1.4330802927
N 0.3148730315 0.1554513926 1.0396168387
C 1.6169341752 0.3964843009 1.3823680800
O 1.9832492125 1.2894533914 2.1393062778
C 2.6248965443 -0.5136666204 0.7774649202
C 3.9555772885 -0.4306955865 1.1532338630
N 4.6361555820 -1.3547309401 0.4426414800
N 3.8441940046 -2.0490624940 -0.3877449154
C 2.6204015110 -1.5503391381 -0.1960632778
C 1.5386134257 -2.1412598874 -1.0213893798
F 0.5405147721 -2.6790129506 -0.2207242475
F 0.9135790714 -1.1805057735 -1.7894840157
C 6.0606775134 -1.6442262321 0.5065477960
H -5.3053098125 0.8367249083 -2.8507036878
H -6.3052774481 0.1157121203 -1.5796503203
H -6.1198795095 -0.7102001425 -3.1322675947
H -4.7001920605 -1.7781958572 -1.3795187812
H -3.0454823407 -0.3276313077 -3.5075170915
H -2.5779957146 -1.8185056072 -2.6755831397
H -3.9692300339 -1.8160279322 -3.7678883055
H -3.2991746168 0.9384671014 -1.3195129454
H -5.3036695966 0.8641769920 0.4323141838
H -5.3065121191 -1.6277018077 0.7739232722
H -4.5533053816 -0.9991941627 2.2434477905
H -3.2756645863 -2.6520395015 0.1392791782
H -2.4894594885 -2.0407667045 1.5969063821
H -1.6033498076 -1.0124085520 -0.7550281589
H -4.2144007629 2.5565589483 2.4658818809
H -2.0467827556 3.3130887363 3.4325373810
H 4.4230045400 0.2275095115 1.8702658681
H 1.9120366597 -2.9306384194 -1.6804787764
H 6.6392131579 -0.7454198163 0.2753310883
H 6.2755251699 -2.4164705737 -0.2316358403
H 6.3309129834 -2.0057789509 1.5030278041
H 0.1422520734 -0.6275454422 0.4290308043
H 0.0703141659 2.2378451630 2.7990140951
