47
CONF67
C 3.8964383981 2.6482514017 2.4979254953
C 3.3160045722 1.4408493871 3.2468124334
C 4.4180897026 0.6780634171 3.9931049602
C 2.5484230347 0.5351622075 2.3063256448
C 1.1723659996 0.3466549598 2.4600911232
C 0.4485447106 -0.4585694545 1.5837989314
C 1.1217232415 -1.0846969063 0.5478655591
C 2.4911572930 -0.9402829007 0.3729243496
C 3.1936346303 -0.1252075767 1.2545936129
O 0.3764407109 -1.8916667976 -0.3354014245
P 0.1400888620 -1.3480209646 -1.8334166217
O 1.2797223394 -1.4156085384 -2.7679280977
O -0.4819375480 0.1163079603 -1.5862264199
C 0.1197016733 1.2786650805 -2.0981284793
C 0.8725296751 2.0641477128 -1.2370925552
C 1.4233435434 3.2464809564 -1.7257579016
C 1.2192754703 3.6233302083 -3.0516270311
C 0.4578144345 2.8169349732 -3.8951733951
C -0.1018410466 1.6330012478 -3.4207059361
O -1.0879183643 -2.2538202387 -2.3060609240
C -2.3132302141 -2.2810904649 -1.6097123087
C -2.5093688623 -3.2523750624 -0.6392068708
C -3.7448092219 -3.3108437952 0.0012900359
C -4.7544687029 -2.4104136494 -0.3323371493
C -4.5324669004 -1.4473160048 -1.3143952019
C -3.3031075596 -1.3764853760 -1.9651979264
H 3.1096079535 3.2036460303 1.9774328606
H 4.6351752031 2.3265753817 1.7557401391
H 4.3946377639 3.3270374864 3.1979629204
H 5.1769758225 0.3058678740 3.2965138590
H 4.9156850957 1.3377933802 4.7114280397
H 4.0056086435 -0.1773169563 4.5371567667
H 0.6516372478 0.8466745113 3.2719881216
H -0.6232396179 -0.5903268031 1.6896518746
H 2.9923706065 -1.4481424713 -0.4439665438
H 4.2632545165 -0.0040016991 1.1120483608
H 1.0203342523 1.7521144754 -0.2081153350
H 2.0148769062 3.8717026692 -1.0646140005
H 1.6525215663 4.5445435037 -3.4270262693
H 0.2957556825 3.1069862737 -4.9283126060
H -0.6980460307 0.9910278932 -4.0607899183
H -3.9155871726 -4.0655483610 0.7622143908
H -5.7148553507 -2.4616702800 0.1699352110
H -5.3178625426 -0.7474135737 -1.5808233576
H -3.1099921104 -0.6373961539 -2.7350262960
H 2.6005845471 1.8149025411 3.9896302765
H -1.7112460294 -3.9451301224 -0.3966991069
