35
CONF118
C -4.7601333401 -2.0340152827 2.2913507030
C -3.9490918608 -1.7129432171 1.0616515455
O -2.5420021310 -1.6201268269 1.4825570435
P -1.4468419778 -1.1935398643 0.4081913661
S -1.2909551736 -2.2350903947 -1.2211092656
O -1.6671397797 0.3770435156 0.2527368384
C -1.4577988712 1.1061190201 -1.0092576665
C -1.3029099993 2.5636088972 -0.6557225143
O -0.1929775832 -1.3381323456 1.4703680532
C 1.0736295873 -1.0174778389 1.1189847641
N 2.1139553959 -1.5346977356 1.8086412585
C 3.1386181441 -0.9686387033 1.1803315760
N 2.7354914173 -0.1656287927 0.1799507543
N 1.3727719805 -0.1885510306 0.1327828739
C 3.5037305951 0.6234963015 -0.8004617466
C 3.1065840748 2.0921754121 -0.7066013246
C 3.2997361445 0.0432842772 -2.1963133715
Cl 4.7823420203 -1.2269100277 1.5885155906
H -5.8128583850 -2.1215450753 2.0069158623
H -4.6669379123 -1.2419866753 3.0390828317
H -4.4392270602 -2.9824741515 2.7303845131
H -4.2423192188 -0.7542842115 0.6204263808
H -4.0249209975 -2.5000883132 0.3050258817
H -0.5642859143 0.7113762089 -1.4977592277
H -2.3325655867 0.9235794263 -1.6395466048
H -1.1671465424 3.1378080379 -1.5772853109
H -0.4265539546 2.7162620656 -0.0193998744
H -2.1906124045 2.9400904096 -0.1401207673
H 4.5492892967 0.5055528058 -0.5015446196
H 3.2384234657 2.4704679843 0.3107487494
H 3.7399348835 2.6731676171 -1.3819435659
H 2.0634137237 2.2281511650 -1.0063474966
H 3.9237963450 0.5934037422 -2.9054719491
H 2.2542718311 0.1433891798 -2.5028453899
H 3.5812889883 -1.0128458810 -2.2269158908
