40
CONF49
C 2.8471854176 -1.9626798768 1.4963044266
C 2.7936464915 -2.0408685331 -0.0088843492
O 3.4612561402 -0.8376770558 -0.5229600844
C 3.2949109371 -0.5748251811 -1.8201808934
O 2.7251295646 -1.2888823263 -2.6156521621
C 3.8429337726 0.8140894135 -2.1249585622
C 2.6835652683 1.8218301523 -2.2092587026
C 1.8624191887 1.7859965593 -0.9470840400
C 0.6646528198 1.0707365953 -0.9257453282
C -0.0947458905 0.9430212645 0.2336722066
C 0.3682712336 1.5493489261 1.4005746599
C 1.5297227933 2.2975943113 1.4180230655
C 2.2634420192 2.4019751392 0.2429410458
Cl 3.7413333643 3.3452481834 0.2897338785
F -0.3202539525 1.4020899692 2.5453820020
N -1.2952787473 0.2095992877 0.2292204708
C -1.4689268371 -1.0507863639 -0.3038758793
O -0.6596356592 -1.7996309384 -0.8265545209
N -2.8401557808 -1.2744182409 -0.0842592061
C -3.3815329445 -0.1577831668 0.5428273451
N -2.4705219479 0.7466833866 0.7392331109
C -4.8027796084 -0.0193543005 0.9281526051
C -3.4912413423 -2.4705719282 -0.4915796328
F -4.5030871174 -2.1861237056 -1.3691440123
F -4.0812395297 -3.0801019197 0.5821878025
Cl 4.7404642521 0.7830626673 -3.7073841744
H 3.8792949579 -1.9365152469 1.8562511403
H 2.3564788829 -2.8459493280 1.9154357513
H 2.3206088620 -1.0729452779 1.8555608767
H 1.7668074249 -2.0420783630 -0.3832580626
H 3.3259156101 -2.9116929971 -0.4033381324
H 3.1024292067 2.8162177000 -2.3839309953
H 2.0511727486 1.5561200543 -3.0601887891
H 0.3103340582 0.6004934889 -1.8369277832
H 1.8558985249 2.7668584567 2.3386283691
H -5.0893127240 -0.7991337377 1.6401274115
H -5.4526662829 -0.1033494554 0.0521726718
H -4.9451999781 0.9582857435 1.3897520034
H -2.7724716508 -3.1498977936 -0.9588861301
H 4.5687899139 1.1047172336 -1.3648055255
