41
CONF2
C 2.8599953647 3.5526290592 0.7186961357
C 2.8585135895 2.0689145889 0.5173222529
C 2.7880693396 1.1634913427 1.5695184243
C 2.7590278049 -0.2092765329 1.3648352476
C 2.7976950730 -0.7577776774 0.0883099313
C 2.8813419923 0.1452091573 -0.9675701263
C 2.9032647153 1.5133465790 -0.7570368331
F 2.9569450312 2.3312269168 -1.8272017254
F 2.9245504354 -0.3159681176 -2.2316633374
C 2.6960635390 -2.2333763455 -0.1682093191
O 1.5097892069 -2.5302088019 -0.9569723150
C 0.3224805360 -2.3401854128 -0.3222886750
O 0.2419981286 -2.0750324265 0.8619416537
C -0.7855223687 -2.4429798432 -1.2845896442
C -1.9597629865 -1.4427674030 -1.1261740118
C -2.1921617783 -2.9054226963 -0.9153570121
C -2.9197438256 -3.6385459691 -2.0228299688
C -2.4876262775 -3.4438386867 0.4647355030
C -1.9565493973 -0.4772984270 -0.0179770659
C -1.4651159797 0.7582351937 -0.1063506639
C -1.4980453796 1.7570156119 1.0115540310
F -0.2500916842 2.1434264828 1.3810434746
F -2.1013790617 1.2547852931 2.1068584473
F -2.1633308343 2.8869144269 0.6654217860
Cl -0.6707344318 1.3591329687 -1.5419306334
F 2.6894103825 -1.0113206804 2.4418234456
F 2.7271806324 1.6178286032 2.8374987204
H 1.9003537471 3.9774467946 0.4046226823
H 3.0223619974 3.8028115139 1.7668846363
H 3.6427500422 4.0191821803 0.1152771823
H 2.6744381016 -2.7904632696 0.7690714272
H 3.5220750604 -2.5820973925 -0.7898404239
H -2.2647018878 -1.0262145287 -2.0838971881
H -2.6932691375 -3.2107336287 -3.0034924540
H -2.6342916017 -4.6955498426 -2.0295304298
H -4.0010649879 -3.5763256340 -1.8600180025
H -2.2333308499 -4.5079739471 0.5047895352
H -1.9310743011 -2.9331303642 1.2498322486
H -3.5594937741 -3.3448785710 0.6681251741
H -2.3952414017 -0.7638460792 0.9325942368
H -0.4761841541 -2.6239943209 -2.3080230684
