47
CONF33
C -4.8596596883 -1.6264307780 -0.1962954138
C -3.6107519132 -0.8385025713 0.1362502896
C -2.2550796665 -1.4424736334 -0.1098292641
C -2.8028538800 -0.3731853233 -1.0774033857
C -2.1481709378 0.9348608181 -1.2209541320
O -2.2273832444 1.6370883753 -2.2079703591
O -1.4124272661 1.2870959478 -0.1248896151
C -0.6985830971 2.5410334250 -0.2413057123
C -0.5001831266 3.0006059327 1.1347125261
N -0.3044882811 3.3814417283 2.2070821946
C 0.6261480772 2.3666930797 -0.9497339531
C 1.4955400984 1.3623739751 -0.5214081518
C 2.7242817419 1.2018683250 -1.1494202635
C 3.0505999514 2.0575678523 -2.2072070623
C 2.1919416582 3.0452560844 -2.6446655820
C 0.9644698551 3.2054662490 -2.0063412535
F 4.2438869010 1.8936233795 -2.8141726270
O 3.6358502153 0.2291494056 -0.8466462539
C 3.6293819977 -0.3376966647 0.4256219179
C 3.6370730067 0.4511919426 1.5717841706
C 3.6982350895 -0.1739189068 2.8137687835
C 3.7625927364 -1.5636341119 2.9050884238
C 3.7716320395 -2.3334382614 1.7445787316
C 3.7029381775 -1.7228190493 0.4942869515
C -2.0665153840 -2.8061707315 -0.6085053700
C -0.9318753580 -3.5006290352 -0.5123860482
Cl 0.5355397135 -2.8810704637 0.1956524006
Cl -0.7855345860 -5.1330319219 -1.1104925540
C -3.7755214410 0.0529848219 1.3471371267
H -5.7077146038 -0.9412748914 -0.2948828793
H -5.0834027375 -2.3303270363 0.6128501885
H -4.7723963560 -2.1858125970 -1.1300372739
H -1.4700599249 -1.0697060056 0.5395840337
H -3.1755991658 -0.7345974134 -2.0300092922
H -1.3155035170 3.2760508733 -0.7703484862
H 1.2183663116 0.7056362553 0.2967152558
H 2.4886955628 3.6787359227 -3.4733480044
H 0.2770775284 3.9765836152 -2.3370072183
H 3.5968173291 1.5327193310 1.4934493405
H 3.7039855910 0.4325896491 3.7138593549
H 3.8111935873 -2.0429656859 3.8771441947
H 3.8273427791 -3.4156326262 1.8069064946
H 3.7071509214 -2.3041492417 -0.4215532587
H -2.8978690969 -3.3024867322 -1.0994153585
H -4.1284404759 -0.5540080491 2.1875062893
H -4.5262532515 0.8260807416 1.1499491404
H -2.8444735690 0.5372641174 1.6419310453
