39
CONF974
C 9.5763685295 2.9148638156 -0.1697275274
C 8.2680770511 2.8384506215 -0.4096726161
C 7.4340555249 1.8114407554 0.2467869984
O 7.8186406213 0.9680151444 1.0330855664
O 6.1433409977 1.9276222468 -0.1473711251
C 5.2274762631 0.9713003041 0.4373785174
C 3.8665347237 1.3009745270 -0.1568460696
C 2.8115951891 0.3435571196 0.3443451629
C 1.3736303112 0.7197818954 -0.1313389020
C 0.2919284848 -0.3956309544 0.0808404100
C -1.1796776628 0.1525529984 0.0334095779
C -2.2468255228 -0.9739753276 -0.2166644103
C -3.6985978610 -0.5497934529 0.1845338616
C -4.8744750898 -1.4177229613 -0.3973992689
C -4.8466187597 -2.9532128391 -0.1247920949
F -3.8575117129 -3.5381122650 -0.8125161999
F -6.0119457506 -3.4795629344 -0.5210434487
F -4.6794153490 -3.1990439735 1.1804872296
F -6.0049156585 -0.9303650458 0.1674830581
F -4.9441647094 -1.2327177365 -1.7325049863
F -3.8011538280 -0.5635545254 1.5303698533
F -3.9158272496 0.7118704016 -0.2603540180
F -2.2299054946 -1.2937711341 -1.5290944061
F -1.9154285818 -2.0662173198 0.5126832559
F -1.4504424392 0.7598243311 1.2105642535
F -1.2801880315 1.0591083306 -0.9645576539
F 0.4841363495 -0.9849021050 1.2818357762
F 0.4377802120 -1.3255590132 -0.8926396359
F 1.4202224695 1.0077605313 -1.4556474024
F 0.9903680372 1.8370831191 0.5390641445
F 2.7991403163 0.3125800210 1.7132229869
F 3.0679940565 -0.9350608462 -0.0830116755
H 10.1905542347 3.6687587172 -0.6502937042
H 10.0582188542 2.2223305497 0.5143413219
H 7.7660655426 3.5199313606 -1.0892957051
H 5.2373553045 1.0835255047 1.5248408316
H 5.5508940074 -0.0417098730 0.1800435135
H 3.5702092867 2.3186893760 0.1169633344
H 3.9048896274 1.2326703625 -1.2471152639
