36
CONF20
C 4.1738591751 -1.4533623081 -1.2007882487
C 3.5405268098 -0.2170810834 -0.5345680865
C 3.9056637065 -0.1861850787 0.9622854238
C 3.4008852404 1.0722541356 1.6733744165
C 3.9364793159 2.3311425881 0.9879791027
C 3.5791165803 2.3348246030 -0.4996276332
C 4.0788477012 1.0655350749 -1.1931670068
C 2.0307098368 -0.3259623108 -0.8136803015
O 1.5188840324 0.1208808242 -1.8368257859
N 1.2958906366 -1.0333905365 0.0987423042
C -0.0917425986 -1.2648967627 -0.0523916641
C -0.5827037850 -2.1377926419 -1.0327948522
C -1.9573005788 -2.3437763891 -1.1724123335
C -2.8575515171 -1.7004134832 -0.3103767932
C -2.3627548790 -0.8533568515 0.6804873342
C -0.9988389074 -0.6353594180 0.7958807402
O -4.1797498992 -1.9392923059 -0.4831881672
Cl -2.5895160994 -3.4120070675 -2.3922277554
Cl 0.5287096602 -2.9993028284 -2.0539088303
H 5.2622616453 -1.4081718444 -1.0896944166
H 3.8164426637 -2.3784998473 -0.7366658841
H 3.9348968392 -1.4842266321 -2.2686633282
H 5.0026502492 -0.2062408341 1.0189973597
H 3.5754074700 -1.0982152335 1.4762590117
H 2.3019810006 1.0953236056 1.6625107266
H 3.7064686984 1.0486804766 2.7256056391
H 3.5400343502 3.2278631498 1.4781422367
H 5.0298384060 2.3612126612 1.0972283431
H 4.0064153191 3.2163204015 -0.9914878030
H 2.4889007678 2.4068621678 -0.6122080182
H 5.1748922630 1.0272931651 -1.1326748498
H 3.8096773006 1.0719569470 -2.2533140075
H 1.7101373815 -1.2728581074 0.9866153720
H -3.0572766548 -0.3553388218 1.3504730135
H -4.6845933939 -1.4369499532 0.1710903130
H -0.6189990731 0.0417185930 1.5538195962
