65
CONF12
C -2.3460504763 4.2548150849 1.4692617140
C -3.0682316750 2.9870064680 1.9173560133
C -2.1089812571 1.8323681848 2.2450076405
C -2.8727094016 0.5880311407 2.7147758888
C -1.3145413824 1.4792826716 1.0051419787
O -1.8206018525 1.1169236308 -0.0404219108
O 0.0122654120 1.5966107637 1.1949954300
C 0.8709678751 1.2746072711 0.0498186631
C 1.0648612912 2.5229498241 -0.7945561744
C 1.8953741353 2.1960492009 -2.0447152204
C 3.0423390315 1.2967451407 -1.6993265202
C 3.1971444784 0.6471985462 -0.5308002402
C 2.1956730589 0.7735046262 0.6064014413
C 2.0953368426 -0.5598368290 1.3846067852
C 3.4919694106 -0.8941947626 1.9486575566
C 4.5088627977 -0.9104951901 0.8411918093
C 4.3449622360 -0.2102942008 -0.2913876629
C 3.5251290078 -2.1800118088 2.7785646171
C 1.4818788046 -1.6746366564 0.5054775474
C 0.0082034014 -1.9145115154 0.8516387360
C -0.8424501934 -2.5126825006 -0.2547844097
C -2.2938273640 -2.7324470371 0.2069573008
C -3.3283616319 -2.3726260157 -0.8669846847
C -2.7285232791 -2.6449947472 -2.2524836674
C -1.5365180021 -1.7478823530 -2.4647044839
O -1.2860922461 -1.1464664252 -3.4773143637
O -0.7415696518 -1.5766639158 -1.3715195723
O -3.7887196306 -1.0318432396 -0.7578506515
C 1.0400464871 1.5824532979 -3.1672334230
H -3.0556360964 5.0653182022 1.2806380499
H -1.6366817812 4.5958133090 2.2308784134
H -1.7860519065 4.0844966128 0.5433451227
H -3.6667159175 3.1912574148 2.8133535204
H -3.7601152005 2.6493504218 1.1369464940
H -1.4057815847 2.1528122061 3.0216725974
H -3.4780013426 0.8309447974 3.5931544316
H -3.5355572438 0.2276743635 1.9217669730
H -2.1868658003 -0.2202480449 2.9898988666
H 0.3727917390 0.5000560300 -0.5388614367
H 0.0886651439 2.9228713488 -1.0877832265
H 1.5747876517 3.2797188097 -0.1853987263
H 2.3122788717 3.1386626372 -2.4291737791
H 3.7957735378 1.1527157636 -2.4736461810
H 2.5724441902 1.5344420562 1.3083812580
H 1.4345575984 -0.3939451659 2.2460052257
H 3.7528798403 -0.0713077572 2.6351594633
H 5.4011013382 -1.5179916536 0.9784607566
H 5.0936589460 -0.2630942987 -1.0786934399
H 2.7504294894 -2.1649779454 3.5523590510
H 3.3750075550 -3.0699682748 2.1602535032
H 4.4952627459 -2.2875453479 3.2742626608
H 1.5733218759 -1.3978397312 -0.5498888029
H 2.0380048683 -2.6103265052 0.6156231431
H -0.0742206416 -2.5640599728 1.7334695248
H -0.4701628496 -0.9685889421 1.1291132580
H -0.4075037195 -3.4589979637 -0.6079244665
H -2.5067103016 -2.1318283615 1.0975010904
H -2.4058022609 -3.7845483385 0.4920274634
H -4.2247334467 -2.9882729122 -0.7373611111
H -3.4451128558 -2.4468764827 -3.0507269457
H -2.4106104042 -3.6950815051 -2.3214665925
H -3.0403874559 -0.4201410786 -0.6578847495
H 0.5474005689 0.6618614720 -2.8432892222
H 1.6581616602 1.3374125563 -4.0366798467
H 0.2658233052 2.2864669637 -3.4884956413
