29
CONF33
C 0.5918281697 2.1864477438 -2.8252444162
C -0.3215371130 1.3712441292 -1.9459270824
O -0.1245857423 1.8440621979 -0.5611762069
P -0.5948786166 0.9864216715 0.6845580446
S -0.0981890841 1.7443583794 2.3913712885
O -2.1322262605 0.7142794515 0.3705811098
C -2.9669916429 -0.0533195055 1.3078871944
C -4.3628499040 -0.0844152042 0.7389322505
O -0.0366602267 -0.5597229063 0.4351567630
C 1.2545048324 -0.9265052960 0.6445350077
N 2.2226235400 -0.0857650169 0.3275178588
C 3.4821584863 -0.4404405291 0.4888361020
C 3.8505088188 -1.6957260652 0.9767022156
C 2.8389275785 -2.5907162467 1.3100728527
C 1.5185209195 -2.2043228302 1.1481034584
Cl 0.2222933044 -3.2820705206 1.5636543325
Cl 5.5102305791 -2.1604936593 1.1768627764
Cl 4.6900865887 0.7411164891 0.0524984979
H 0.3549568240 3.2511610894 -2.7520479278
H 1.6375601340 2.0312486577 -2.5463091903
H 0.4575062064 1.8714086889 -3.8644590560
H -0.0785043317 0.3049279362 -1.9897204835
H -1.3761825148 1.5149857466 -2.1965405293
H -2.9316072909 0.4474556384 2.2804776009
H -2.5407823813 -1.0575595047 1.3993012953
H -4.7639776939 0.9276446470 0.6388552709
H -4.3749749301 -0.5734770219 -0.2387554611
H -5.0093589148 -0.6487349132 1.4174813405
H 3.0816009514 -3.5734935378 1.6968975762
