45
CONF10
C 4.4181536726 1.9167030798 1.6213541137
C 3.4924596159 2.4807512431 0.5449033614
C 2.6433758913 1.4029816071 -0.1277568665
C 1.7040299195 1.9692992706 -1.1925988960
C 0.9178904533 0.9084692534 -1.9652869082
C -0.0212688380 0.0408854270 -1.1052699569
C -0.7538764410 -0.9800061613 -1.9968293191
C -1.7201016950 -1.9072122582 -1.2565165284
C -1.0558267014 -2.8033675498 -0.2112029488
C -2.0331175231 -3.7859501089 0.4334002701
C -1.3694204060 -4.6722129140 1.4860495658
C -0.9924524860 0.8845777695 -0.3087639551
C -1.9079126757 1.7272216441 -0.9507131394
C -2.8028243820 2.5019161783 -0.2186007291
C -2.8011613025 2.4493255112 1.1752424586
C -1.8963358147 1.6153910581 1.8266608095
C -1.0018106854 0.8417845298 1.0878925928
H 5.0196021595 2.7039075644 2.0871386996
H 5.1045390558 1.1760257505 1.1958654961
H 3.8415886125 1.4216702240 2.4108372458
H 2.8286173072 3.2358638193 0.9871817120
H 4.0864560886 3.0007181371 -0.2186116457
H 3.3025858730 0.6508869959 -0.5853244728
H 2.0618647419 0.8785446017 0.6420924640
H 1.0039249583 2.6708253563 -0.7181742754
H 2.2933554629 2.5579290405 -1.9084404771
H 1.6204532059 0.2386975782 -2.4798670084
H 0.3236294325 1.3980143122 -2.7482860100
H 0.5929137620 -0.5154465934 -0.3872785375
H -1.3035930617 -0.4342114246 -2.7753520879
H 0.0031802834 -1.5839678620 -2.5157340951
H -2.5033201241 -1.3078861427 -0.7721408142
H -2.2292787876 -2.5418835877 -1.9942348630
H -0.6031605504 -2.1880709340 0.5776863234
H -0.2323433053 -3.3615112120 -0.6799637220
H -2.4830048355 -4.4129748081 -0.3479557351
H -2.8576328608 -3.2224428137 0.8905622715
H -0.5573045707 -5.2598681985 1.0434572364
H -2.0842384503 -5.3699097752 1.9339483307
H -0.9404062752 -4.0661153425 2.2919537709
H -1.9211719137 1.7797378625 -2.0359226769
H -3.5047123828 3.1494658390 -0.7362292544
H -3.4992431901 3.0534775369 1.7465669052
H -1.8852238902 1.5655218410 2.9116087721
H -0.2978763305 0.1924457347 1.6025273322
