43
CONF11
O 5.3147727069 3.5972946637 -1.2999331916
C 5.0002960776 2.9951323192 -0.1357614926
O 5.7144995812 3.0432272900 0.8482498194
C 3.7032840922 2.2765560262 -0.1905882197
C 3.2640635476 1.6220207252 0.9650636603
C 2.0571151602 0.9424368577 0.9685709363
C 1.3001706690 0.9073437034 -0.2012845531
C 1.7155823632 1.5596738856 -1.3586306463
C 2.9207140584 2.2473288797 -1.3497391294
N 0.0527768697 0.2226889775 -0.2062313939
N -1.0751459403 0.9058412465 -0.5465290672
C -2.0627090699 0.0484554314 -0.2943790816
N -1.6176240456 -1.1521463088 0.1744850827
C -0.2878837228 -1.0314288252 0.2134208065
C 0.6003986251 -2.1042925082 0.6228046839
C 1.9398463784 -2.1771745357 0.2055323429
C 2.7692024872 -3.1992146285 0.6346591143
C 2.2663175831 -4.1772022518 1.4969976632
C 0.9391003394 -4.1504983318 1.8948500219
C 0.0868814001 -3.1367417167 1.4478303803
O -1.2048343844 -3.1905889586 1.8393286608
C -3.4617578651 0.3807290930 -0.5074715107
C -4.4580640709 -0.5625215216 -0.2117368705
C -5.7996798346 -0.2732099902 -0.4016347942
C -6.1681707544 0.9796894139 -0.8982473054
C -5.2029383367 1.9296024088 -1.1984865606
C -3.8482097226 1.6453445212 -1.0076904161
O -2.9612748565 2.6210710628 -1.3195056697
H 6.1715437912 4.0422583611 -1.1857923790
H 3.8690149370 1.6637609990 1.8636442810
H 1.7005249218 0.4456254035 1.8640419394
H 1.1043252952 1.5188034216 -2.2531367001
H 3.2542848877 2.7536828042 -2.2470890196
H 2.3261340039 -1.4291960727 -0.4770313670
H 3.7983768139 -3.2397333128 0.2959753729
H 2.9109903895 -4.9777950810 1.8458528336
H 0.5307614224 -4.9194326044 2.5425076147
H -1.7078072737 -2.5044506038 1.3354503097
H -4.1563370128 -1.5314197066 0.1717898195
H -6.5547844627 -1.0154122100 -0.1669645738
H -7.2159796359 1.2180084764 -1.0522857074
H -5.4769888658 2.9064110562 -1.5839189811
H -2.0507898493 2.2994722358 -1.1369859083
