78
CONF151
C -0.5626736283 -0.6072305102 -0.6762732915
C 0.6606982251 -1.0074781437 -1.4883360204
O 0.3150410279 -2.3446496515 -1.9922090377
C -0.6249025698 -2.9204493374 -1.1972029337
O -0.9967335444 -4.0557461001 -1.3805663591
C -1.0044497089 -1.9462221871 -0.1083847221
C -2.4451588136 -1.8956744836 0.4057687161
C -3.4874432146 -1.8163161853 -0.7048050410
C -3.9356189702 -0.5848990215 -1.1878305335
C -4.8635438019 -0.5484831033 -2.2260073680
O -5.3807111103 0.5896641735 -2.7850091274
C -4.9182532657 1.8447525204 -2.2717076871
C -5.3585335422 -1.7296865607 -2.7885158291
O -6.2733921087 -1.7071272972 -3.8030028947
C -4.9176327663 -2.9619663320 -2.2919880644
O -5.4618322469 -4.0594301844 -2.8917356562
C -5.0160172210 -5.3412780733 -2.4325309669
C -3.9877414612 -2.9996650698 -1.2512538488
C -2.5484339129 -0.7147769858 1.3617073107
C -3.6410319075 -0.7172197539 2.2545352705
C -3.7891380949 0.3578594534 3.0936068205
C -2.9037856221 1.4313489841 3.0720536025
O -3.2843422118 2.3719625481 3.9926199269
C -4.4462407998 1.8334401849 4.6601302963
O -4.7642516949 0.5729906758 4.0288800009
C -1.8383160361 1.4654862071 2.2104470195
C -1.6575903865 0.3672789631 1.3384482755
C -0.4346033750 0.4123684873 0.4391674824
O 0.7360421369 0.1126233964 1.2547835524
C 1.7098171573 1.1009093198 1.2682862947
O 2.3679269437 1.1012539872 -0.0100356702
C 3.3879374015 2.0947007264 -0.0620634707
C 4.0035009977 2.1211006138 -1.4489460590
O 5.0982271502 3.0585186146 -1.4338622513
C 6.0794068783 2.7867626544 -0.4490434041
O 5.5290498577 2.7087349375 0.8650722249
C 4.4783182856 1.7331195889 0.9395846582
C 3.8977587492 1.7270927403 2.3376728119
O 4.8233148492 1.2618526180 3.3210165771
C 2.7065196179 0.7688017868 2.3788284083
O 2.0165749720 0.8705274942 3.6192149353
C 6.8931127858 1.5639398609 -0.7909203533
C 7.1205388353 1.0090614097 -2.0217613877
C 8.0338593874 -0.0800415803 -1.9834735929
C 8.5031294626 -0.3364148110 -0.7247835125
S 7.8235128964 0.7533516047 0.4388949509
H -1.3386207577 -0.2497931998 -1.3654806832
H 1.5573305735 -1.1022542520 -0.8719687683
H 0.8598956968 -0.3775188762 -2.3558543718
H -0.3488422155 -2.2000978105 0.7413233746
H -2.6414781366 -2.8125229478 0.9733287081
H -3.5780352201 0.3331705846 -0.7384350429
H -3.8353645342 1.9467366496 -2.4087775108
H -5.1686840866 1.9484085402 -1.2095300180
H -5.4370281372 2.6102959627 -2.8490128323
H -6.4562479742 -0.7784363225 -4.0095928786
H -5.5475680461 -6.0728454652 -3.0418060576
H -3.9350542480 -5.4563690816 -2.5755867181
H -5.2666233825 -5.4904379507 -1.3755770515
H -3.6366425361 -3.9475017934 -0.8654297943
H -4.3424326387 -1.5452307745 2.2664471185
H -5.2877975584 2.5219271683 4.5339206598
H -4.2093280916 1.6592580492 5.7157779385
H -1.1541230060 2.3073341935 2.1950719761
H -0.3186999404 1.4216983143 0.0263964764
H 1.2718485967 2.1019416066 1.4399769608
H 2.9766741919 3.0883459841 0.1817984535
H 3.3018441746 2.4868401628 -2.2018670817
H 4.3449944158 1.1136942610 -1.7233890491
H 6.7156053057 3.6782116672 -0.4305620398
H 4.8677927607 0.7314943817 0.6974414398
H 3.5486953358 2.7420272322 2.5871971795
H 5.4967210536 1.9431495767 3.4427000419
H 3.0704939198 -0.2581038839 2.2115257964
H 2.6779889348 0.7713290039 4.3176717741
H 6.6454300594 1.3739932923 -2.9247609550
H 8.3293140414 -0.6520908835 -2.8552370789
H 9.1960260320 -1.1039295543 -0.4061801030
