43
CONF60
C 6.2480766262 -1.7237482227 -0.9799891069
O 4.9527290038 -1.4437265651 -1.5271200634
C 4.2460546132 -0.4007811718 -1.0006143849
C 2.9989225886 -0.1757389639 -1.5872514496
C 2.2548668448 0.8755634046 -1.0723036562
C 2.7096887784 1.6967673414 -0.0094445515
C 3.9591967710 1.4539036702 0.5568099693
C 4.7210568908 0.4037589197 0.0581324318
N 1.7571371120 2.6665016016 0.2889390954
C 0.7814674173 2.4123764213 -0.5451519789
N 1.0129200548 1.3737930425 -1.4012097271
S -0.7650200140 3.3375284054 -0.6645169564
O -1.4469600053 2.7659586034 -1.9061790304
C -1.5922424138 2.5699133156 0.8556179660
C -1.7575910983 1.0946930481 0.7175261592
N -0.7204806873 0.3574333490 1.1459836299
C -0.7863433015 -0.9678654864 1.0080673064
C -1.8753347953 -1.6444955439 0.4619578872
C -1.8877656453 -3.1353065493 0.3164669005
C -2.9556780680 -0.8575907387 0.0500286207
O -4.0420670658 -1.4853322808 -0.5117542871
C -5.1428614627 -1.6640896735 0.4071044190
C -2.9176285358 0.5390858917 0.1496651547
C -4.0702270691 1.3827657799 -0.3160548661
H 6.9231495492 -0.8694459098 -1.1068193622
H 6.1799071946 -1.9886148764 0.0816127217
H 6.6264958045 -2.5758296078 -1.5454393127
H 2.6477718471 -0.8023337106 -2.3995551172
H 4.3320985777 2.0669674984 1.3709250211
H 5.6915495386 0.2086816668 0.4962958795
H 0.3632246865 1.0320183262 -2.0959682733
H -0.9258732275 2.8333120250 1.6816836406
H -2.5318943549 3.1199153124 0.9421150949
H 0.0739506770 -1.5374008439 1.3600811455
H -2.7337982321 -3.5808561448 0.8491037317
H -0.9638503540 -3.5649257083 0.7106847164
H -1.9847547354 -3.4228034715 -0.7356914731
H -5.9314174777 -2.1670452915 -0.1545362168
H -4.8344396886 -2.2856952569 1.2555699581
H -5.5073417799 -0.6981085989 0.7740473688
H -4.7308530792 0.8050122374 -0.9645943391
H -4.6602269218 1.7443338407 0.5348486185
H -3.7156158329 2.2514515029 -0.8733459548
