40
CONF22
C 0.6035101697 -1.6946584802 1.5461900110
C -0.2370614724 -1.4003489619 0.2966071125
C 0.4900869405 -1.9648328243 -0.9366097286
C -1.6382640228 -2.0139121094 0.3416874146
C -2.6096684116 -1.5799355848 -0.5672396767
C -3.8730404867 -2.1601461133 -0.5967837887
C -4.1911764653 -3.1946623468 0.2824693936
C -3.2304050294 -3.6387179059 1.1852018255
C -1.9640734271 -3.0541597192 1.2133583510
N -0.3352838703 0.0558211880 0.0807158554
C -0.9427819974 0.8951377082 0.9750554712
O -1.6013788251 0.4949915987 1.9431960257
N -0.8292840798 2.2426171426 0.7091937314
C -0.0044323538 2.8420825004 -0.3173808499
C 1.4939544198 2.7860364842 -0.0615724915
C 2.0211430283 2.3224528341 1.1452861701
C 3.3940601792 2.2724163651 1.3669200367
C 4.2757772199 2.6916127765 0.3754273534
C 3.7812888088 3.1644374810 -0.8364398094
C 2.4066027200 3.2035565564 -1.0330158961
Cl 1.8065999095 3.8196391788 -2.5761504011
H 0.0945399655 -1.3602753070 2.4525522369
H 1.5568652075 -1.1641699191 1.4599546656
H 0.8205379343 -2.7629118072 1.6300168368
H -0.0579231644 -1.7296782579 -1.8538024873
H 1.5016998755 -1.5481479539 -1.0065298346
H 0.5683563930 -3.0509943620 -0.8465075962
H -2.3747513384 -0.7687764584 -1.2497974144
H -4.6130982500 -1.8019915879 -1.3063221645
H -5.1777182714 -3.6472370564 0.2634914763
H -3.4638066328 -4.4418577469 1.8779184171
H -1.2382926315 -3.4146340017 1.9332437622
H 0.3613861899 0.4415246739 -0.5387763835
H -1.1677437267 2.8342531594 1.4516333671
H -0.3091412044 3.8902093451 -0.4172728472
H -0.2268139266 2.3813808148 -1.2890926348
H 1.3371625838 1.9940979996 1.9214289880
H 3.7724933022 1.9050083699 2.3149984574
H 5.3479803873 2.6553686309 0.5374941278
H 4.4520934641 3.4994043901 -1.6197014935
