24
CONF212
C 1.9397621239 0.2170524038 2.0628825883
C 1.5868128791 0.3733463782 0.5890229052
C 0.0844213354 0.1519693054 0.3503270352
C -0.2625902567 0.2378510574 -1.1442304292
C -1.7380228156 -0.0177130637 -1.3796480971
O -2.4131329966 0.7958613404 -1.9922327356
C -2.3602208759 -1.2838164561 -0.8507467566
O -3.6560629175 -1.4984755690 -1.3723073816
O 0.1013681249 1.5163399971 -1.6346836464
O -0.6959859238 1.0860501941 1.0927975167
O 2.3760432468 -0.5206205184 -0.2070697235
O 3.3235795197 0.4843304169 2.2975239799
H 1.3712005860 0.9313289447 2.6632540405
H 1.6749435536 -0.8025415670 2.3908097982
H 1.8606436617 1.3807646997 0.2541742663
H -0.1832675667 -0.8461620209 0.7215405493
H 0.2919193993 -0.5538782029 -1.6739800236
H -2.3817713485 -1.1968655951 0.2498352808
H -1.7173670432 -2.1403691834 -1.0920043201
H -3.9701122884 -0.6399095783 -1.6980974709
H -0.6848350351 1.8743555018 -2.0811865641
H -0.5425410618 1.9581196868 0.6986292483
H 2.1724744377 -1.4277731364 0.0648088914
H 3.8227412511 -0.0792451513 1.6905811543
