55
CONF2
C -2.8139443912 1.2217991631 -1.6429634032
C -2.4268782313 0.6729552884 -0.2420696291
C -2.9513172049 1.6514829139 0.8264364959
C -4.4747594479 1.6984752268 0.9085606440
C -5.0397464193 0.3237840593 1.1618118232
O -6.1137121090 0.1547796218 1.7451877221
C -4.2845508828 -0.7955018649 0.6169054429
C -3.1297597002 -0.6635714096 -0.0768959586
C -2.5699237842 -1.8429054572 -0.8102013534
C -1.0545814286 -1.9488432072 -0.6707032393
C -0.3857023730 -0.6406385446 -1.1048389163
C -0.8508740496 0.5435824190 -0.2139758552
C -0.1324840005 0.4527783258 1.1528103930
C 1.3905132450 0.4140600810 0.9536988827
C 1.9358272358 -0.7330758550 0.0947862391
C 1.1385358599 -0.7720514152 -1.2321143576
C 1.7938035259 0.3069954137 -2.0981977386
C 3.2911944400 0.0932784208 -1.8638737085
C 3.4189298300 -0.4419002540 -0.4148613350
C 4.1648449969 0.4937976447 0.4969491414
O 4.1675318042 1.7103940152 0.3597003578
C 4.9519345483 -0.1082875151 1.6383525561
O 5.5348077654 0.8788028352 2.4617611582
C 1.9156054993 -2.0492788858 0.8769832534
O -0.3874782665 1.5641124982 2.0309755859
H -3.8991314732 1.2958847712 -1.7484470341
H -2.4530349855 0.5858935507 -2.4530387227
H -2.3837099870 2.2206091692 -1.7714801428
H -2.5451177811 2.6509890191 0.6350249247
H -2.5787384549 1.3418601742 1.8027616580
H -4.8063962921 2.3683744419 1.7077613729
H -4.9285771627 2.0691380595 -0.0207385758
H -4.7523304865 -1.7740924975 0.7065435683
H -3.0698413526 -2.7581729282 -0.4787867742
H -2.8150302984 -1.7172388379 -1.8764243274
H -0.6847961516 -2.7725027542 -1.2917686930
H -0.8141610958 -2.2023044241 0.3655394301
H -0.7402990843 -0.4435034200 -2.1249879996
H -0.4863971442 1.4779287462 -0.6685777218
H -0.4822282763 -0.4214143542 1.7146153016
H 1.6629605791 1.3766517860 0.5015441489
H 1.8548756372 0.3939691592 1.9481063262
H 1.3427699755 -1.7405901437 -1.7132751574
H 1.4909620086 1.3068729212 -1.7686468125
H 1.5140222514 0.2102396440 -3.1520075931
H 3.6722878779 -0.6660103623 -2.5535081567
H 3.8761338515 1.0037573824 -2.0122473099
H 3.9491426790 -1.4008107563 -0.4054573272
H 5.7208893247 -0.7643918362 1.1972394685
H 4.2851044948 -0.7567125362 2.2265098505
H 5.3292372109 1.7266696834 2.0298927459
H 0.9501970631 -2.2300793030 1.3536057396
H 2.6641332859 -2.0372365837 1.6754841086
H 2.1372211921 -2.8947017259 0.2169616854
H -0.0979647617 2.3659006434 1.5748727166
