19
CONF11
C -2.6788182284 -0.1558709749 -1.2000511675
C -1.7054920999 0.1254588933 -0.0952421249
C -2.0484411842 0.1936573210 1.1959643546
C -0.2947640723 0.3139940055 -0.5343677300
O 0.0623623247 0.1912020669 -1.6930324005
O 0.5422319256 0.6416762814 0.4730214670
C 1.9479461700 0.8008379546 0.1333158006
C 2.6549225882 -0.5375824065 0.1689912139
O 2.6508600033 -1.1197548959 1.4763339523
H -2.4024514258 -1.0692126471 -1.7370162884
H -3.6878777178 -0.2704115057 -0.7998586198
H -2.6760746354 0.6559015617 -1.9348241936
H -1.3185708611 0.3939211478 1.9714532579
H -3.0806504078 0.0449812222 1.4988761249
H 2.3424971519 1.4670651878 0.9037266596
H 2.0423279745 1.2650404922 -0.8525466980
H 2.2094576185 -1.2206596242 -0.5669765871
H 3.7040489733 -0.3781800230 -0.1010986944
H 1.7364867969 -1.3420643640 1.6933315622
