51
CONF145
C 0.9719001899 2.1019838785 -0.1408427265
C -0.4975857441 1.8169532880 -0.0229845781
C -1.0191748820 1.3450401756 1.1216664171
C -2.4424669849 1.0390050080 1.3545108799
C -2.9334129722 -0.4393342968 1.5358138882
C -2.9761412518 0.5665968164 2.6739876811
C -2.0704855410 0.4237850234 3.8764317989
C -4.3725046138 1.0317806694 3.0380176134
C -1.9243264772 -1.4933588076 1.3852926611
O -0.8198131600 -1.5425432048 1.8914755347
O -2.3718752628 -2.4401071448 0.5048562186
C -1.3607266866 -3.3639308845 0.0317093063
C -0.4557744844 -2.6807953502 -0.9408112418
C -0.7505297722 -1.5825844997 -1.6861464486
O 0.3353376519 -1.2179876448 -2.4394884174
C 1.3370494406 -2.1135481543 -2.1679702165
C 0.8999414355 -3.0249564030 -1.2549656143
C 2.6375421145 -1.8818063559 -2.8500104928
C 3.2892131297 -0.5840953724 -2.4116431405
C 3.2671107188 0.5425691766 -3.2347923898
C 3.8474747495 1.7388887471 -2.8155769498
C 4.4569733443 1.8201723232 -1.5665895928
C 4.4806377516 0.6995615411 -0.7373671568
C 3.8980785368 -0.4923918197 -1.1569119272
C -1.2850604632 2.0811127153 -1.2731341369
H 1.4254937572 1.4639648442 -0.9111854283
H 1.4989479952 1.9310392223 0.8015108469
H 1.1463006755 3.1387193065 -0.4570937969
H -0.3371229587 1.1683797225 1.9484695575
H -3.1481826347 1.6084163921 0.7559403132
H -3.8797859841 -0.6609727262 1.0538940040
H -1.0835637427 0.0411876245 3.6230346825
H -1.9604709659 1.3987175947 4.3645335021
H -2.5246604628 -0.2642221869 4.5978548056
H -4.8465656927 0.3212267589 3.7241826849
H -4.3240528426 2.0065112345 3.5362758154
H -5.0063950205 1.1312882480 2.1519852881
H -0.7915959779 -3.7693015047 0.8733101961
H -1.9279964073 -4.1736098733 -0.4356272059
H -1.6243775045 -0.9567625484 -1.7756738368
H 1.4773394811 -3.8409239283 -0.8443126543
H 2.4916915583 -1.8695781878 -3.9365901529
H 3.2883551393 -2.7287889393 -2.6125762541
H 2.7948553575 0.4824734436 -4.2117092727
H 3.8233333328 2.6070871279 -3.4673628416
H 4.9101461754 2.7507544259 -1.2392143349
H 4.9538472773 0.7547785094 0.2384188528
H 3.9149896633 -1.3631881076 -0.5060633002
H -0.8102539912 1.5757153843 -2.1235161577
H -1.2804235982 3.1531178531 -1.5092954164
H -2.3212324220 1.7439604892 -1.2120103165
