94
CONF530
C 9.1701651117 -1.0872968110 -5.2363422719
C 8.1393751015 -1.5923503086 -4.2487866082
C 6.9684590754 -2.3238050843 -4.9304114003
C 5.9245255534 -2.7522010410 -3.9520976907
C 4.8579534926 -1.9904877054 -3.6354036517
C 3.8790862931 -2.3196597427 -2.6388927087
C 2.8677573582 -1.4835739452 -2.2843739802
C 1.8561259071 -1.8005925346 -1.3256036515
C 0.8435916678 -0.9578951877 -0.9924651638
C -0.2252488230 -1.3006808824 -0.0965170763
C -1.2366348439 -0.4677782492 0.2105067891
C -2.3640482140 -0.8250441374 1.1191365651
C -2.3372723169 -0.0974718982 2.4688878318
C -2.2259662738 1.4168656087 2.3461116106
C -2.8676905862 2.1689459560 3.5317689090
C -2.6401379375 3.6793890025 3.3340546740
C -1.1515934912 3.9453420105 3.1952547774
C -0.5232775892 3.1078655292 2.0810759769
O -0.8296616954 1.7207309838 2.2903383392
C 1.0031566475 3.1854306722 2.1116519371
C 1.7040491157 2.3550686690 1.0371020901
C 3.2120954130 2.3348737440 1.2732049649
C 3.9807818347 1.6622230041 0.1713625854
C 5.4307731141 1.8998607129 0.0298017379
O 4.4997470685 2.5106302029 -0.8782323051
C 6.3318122143 0.8694127173 -0.5014305619
C 6.4938411799 0.6042630960 -1.8012642166
C 7.3795993842 -0.4864132388 -2.2428654878
O 7.8835596434 -1.3235271576 -1.5139141385
O 7.5627008829 -0.4288198940 -3.5816852486
O 1.3840371348 2.8334142961 -0.2916860505
O -1.0573618728 3.5632039773 0.8510837271
O -3.1029982158 4.4330424945 4.4615504482
C -4.3423592621 1.8725296157 3.5751713557
O -5.1103239417 2.0826242090 2.6561513559
O -4.7347427773 1.3434815540 4.7522999331
O -3.5810936089 -0.4599841048 0.3986726776
C -4.7268287845 -1.1620511737 0.7749245532
C -5.9295518789 -0.4599085287 0.1435148245
C -7.1873788355 -1.2864454526 0.4260556174
C -6.9796332712 -2.7447899840 0.0075928703
C -5.7260507122 -3.3180196769 0.6680645172
O -4.5992419072 -2.5016719661 0.3005054878
C -5.4181111922 -4.7329535252 0.2282640060
O -8.1012477079 -3.5323526292 0.4128821084
N -8.4146344637 -0.7862764676 -0.2028544901
O -5.7811530538 -0.3357910390 -1.2704612753
H 8.7086331152 -0.4139631665 -5.9652831400
H 9.6069503941 -1.9342769159 -5.7731890722
H 9.9714420514 -0.5542876957 -4.7175358933
H 8.5999763473 -2.2305404607 -3.4903278315
H 7.3890108491 -3.1865828203 -5.4599218669
H 6.5396328467 -1.6440182076 -5.6763569762
H 6.0846221815 -3.6907912282 -3.4214817565
H 4.7220496071 -1.0413876477 -4.1562202807
H 3.9640277951 -3.2893398827 -2.1474320566
H 2.8022955170 -0.5089778087 -2.7706166915
H 1.8949681806 -2.7871101865 -0.8621494583
H 0.8112744307 0.0321631563 -1.4488577102
H -0.2096265398 -2.3017194514 0.3366358865
H -1.2601275288 0.5342613458 -0.2164137821
H -2.3670013885 -1.9070679803 1.2967883571
H -3.2461938672 -0.3668682476 3.0189491829
H -1.4947413060 -0.4687648714 3.0629253897
H -2.7198640394 1.7587799669 1.4262401087
H -2.3928928672 1.8529785500 4.4671283179
H -3.1694231597 3.9951824753 2.4248571004
H -0.6603840429 3.6946791585 4.1423791859
H -0.9826933270 5.0061319160 2.9883603834
H 1.2996012918 4.2370564498 2.0102836339
H 1.3401012661 2.8426419811 3.0959107236
H 1.3208513005 1.3288467209 1.0507632656
H 3.4035277754 1.8003238170 2.2124832024
H 3.5915511410 3.3578341112 1.3968893972
H 3.5913053316 0.7096575019 -0.1948166894
H 5.8789797426 2.5864860880 0.7526446695
H 6.9002778709 0.3074872805 0.2383831570
H 5.9699413777 1.1722388144 -2.5629823812
H 1.8121859419 3.6941622278 -0.4082386618
H -0.4352275259 3.2822776915 0.1546111754
H -4.0586127780 4.5467711158 4.3822863802
H -5.6937028036 1.1818208213 4.7064799846
H -4.8589292097 -1.1815159606 1.8741722347
H -6.0278743127 0.5320747349 0.6118711370
H -7.3406792427 -1.2809242435 1.5150515338
H -6.8501454941 -2.7972819541 -1.0864409211
H -5.8617500866 -3.2803813762 1.7635431197
H -5.2788247731 -4.7684355687 -0.8572067643
H -4.5061269527 -5.0908479226 0.7141267127
H -6.2424382535 -5.3973499029 0.4975038197
H -8.8761838337 -2.9779349185 0.2284808401
H -8.6892903339 0.0917870850 0.2253536950
H -8.2233403298 -0.5811523006 -1.1797136627
H -4.9360825179 0.1045210085 -1.4316214716
