51
CONF4
C 4.4304112419 -0.5293225263 -0.7896826763
C 4.8764932635 0.3704451827 0.3313372121
C 6.1751288619 0.6385589587 0.6168176236
C 7.3951791213 0.1089733047 -0.0550440157
O 8.2472537049 -0.5872874264 0.8853957089
C 3.8525438667 0.9967707389 1.1445973195
C 2.5105022553 0.8694358470 0.9725036844
C 1.5554183637 1.5274644498 1.8128088994
C 0.1891968158 1.4772955318 1.7213779162
C -0.6405127626 2.2672305176 2.6968770229
C -0.4903141146 0.6939943628 0.7157438968
C -1.8347440923 0.6151142565 0.5716746897
C -2.5633596355 -0.1727433756 -0.4205885478
C -2.1975495746 -0.2578043591 -1.7252073802
C -1.0139931106 0.4544007637 -2.3227498559
C -2.9608983919 -1.0859753939 -2.7299430221
C -4.3592121443 -1.4857333365 -2.2762616180
C -4.3065742774 -1.9619888771 -0.8337529462
C -3.8225740409 -0.8668248840 0.1311296436
C -4.9366797871 0.1755173290 0.3507739924
C -3.5108201612 -1.5426049303 1.4788601925
H 3.8660846783 0.0399601476 -1.5371976484
H 5.2653829479 -1.0130668233 -1.2953327753
H 3.7617222966 -1.3092138972 -0.4097264060
H 6.3798646153 1.3053853761 1.4550090625
H 7.1589268392 -0.5387343667 -0.9069325420
H 8.0103897830 0.9367115021 -0.4277053172
H 7.7109064944 -1.2839054346 1.2854779454
H 4.2090708224 1.6290345743 1.9583380455
H 2.1453317470 0.2501294556 0.1582497966
H 1.9771057970 2.1424270004 2.6077201991
H -1.3134047719 1.6126088763 3.2638358795
H -0.0056189962 2.8035663346 3.4051670693
H -1.2725735292 2.9977294346 2.1779787990
H 0.1270370794 0.1073528804 0.0432230540
H -2.4540822802 1.1355006827 1.3000069264
H -0.1598767564 -0.2265628624 -2.4400158987
H -0.6794574868 1.2997513741 -1.7186038966
H -1.2654729222 0.8141756773 -3.3266340392
H -3.0086185754 -0.5358345982 -3.6781711939
H -2.3670720789 -1.9891676321 -2.9465051420
H -5.0351790594 -0.6270224171 -2.3660616061
H -4.7575052045 -2.2711811182 -2.9281551678
H -3.6177617026 -2.8161237582 -0.7678744931
H -5.2889721012 -2.3166990171 -0.4973380516
H -5.2197674934 0.6619548377 -0.5869576607
H -5.8245154812 -0.3100327694 0.7725738498
H -4.6201994582 0.9555372302 1.0503772989
H -2.6711327522 -2.2390376228 1.3787757974
H -3.2583699013 -0.8134443592 2.2544651083
H -4.3871399306 -2.1067158259 1.8184525777
