45
CONF24
C 2.0725278081 -0.8305005514 -4.0830381636
C 2.6368680394 0.0108808037 -2.9486920229
C 1.5241733496 0.8675874649 -2.3352468834
O 1.2073439266 1.9392129381 -2.8436181929
N 0.9139684212 0.3294097970 -1.2491633188
C -0.1157291378 1.0090419852 -0.5303327461
C -1.5141240969 0.3291587154 -0.3752743145
N -1.2742685239 0.2643955808 1.0767651297
C -0.0682079756 0.9434763414 1.0153502210
O 0.6736453318 1.3453041217 1.8801333148
C -2.3834216133 0.5233053246 1.9751432538
C -3.6698589561 0.6884474077 1.0795442561
S -3.0009497787 1.3915641706 -0.5270836231
C -4.3546585019 -0.6511680398 0.8047520619
C -4.6490134538 1.6903894048 1.6787738615
C -2.5551826640 -0.5935061250 2.9952052996
O -2.0807702945 -1.7016698379 2.9096200753
O -3.3282745450 -0.1764145927 4.0142641733
O 3.2165461861 -0.9000953471 -2.0041643193
C 4.0161248580 -0.3853331219 -1.0094392107
C 4.5864074746 -1.3332715925 -0.1553445147
C 5.4037816732 -0.9183460394 0.8872998637
C 5.6590800938 0.4385096734 1.0910278064
C 5.0847752200 1.3734808782 0.2372205681
C 4.2606584892 0.9752527805 -0.8163042531
H 2.8789913161 -1.3905909007 -4.5623504044
H 1.3242606194 -1.5318832752 -3.7025860652
H 1.6047178982 -0.1784858078 -4.8245356012
H 3.4000775785 0.6985021116 -3.3325540372
H -0.1874409694 2.0410875981 -0.8848196403
H -1.6310177374 -0.6399506754 -0.8675358307
H -2.2022426905 1.4586906017 2.5190005169
H -5.1818910287 -0.5003671643 0.1075936444
H -4.7668586509 -1.0632051113 1.7335619194
H -3.6671659838 -1.3866120023 0.3776101807
H -5.4905373052 1.8423624359 0.9968782688
H -5.0456460551 1.2989319042 2.6202096353
H -4.1673505659 2.6529539141 1.8702160777
H -3.4517800302 -0.9187825944 4.6311206081
H 4.3799659032 -2.3852724648 -0.3241029245
H 5.8437133335 -1.6611208255 1.5456288396
H 6.2965644894 0.7603453775 1.9076137545
H 5.2701364643 2.4328806996 0.3851917309
H 3.8237898650 1.7302023303 -1.4591285457
H 1.2460635613 -0.5626636291 -0.9072997938
