41
CONF12
C -6.7438659491 1.4130598110 1.1709136499
C -5.3257416259 1.9052962730 1.3686984750
O -4.4388335072 0.8034484829 1.7247961580
C -3.9900758055 0.0546766771 0.6937659406
O -4.2184615262 0.2613246195 -0.4706724200
C -3.1907813017 -1.1344218989 1.2324129746
C -4.1422215694 -2.2929255395 1.4970986256
O -2.2501035331 -1.5861969360 0.2697582715
C -1.1978234136 -0.7687116922 -0.0361205571
C -0.9531289412 0.4690414353 0.5586624910
C 0.1678159002 1.2039378682 0.1760378684
C 1.0174185599 0.6974077529 -0.7863645495
C 0.7823548172 -0.5277015052 -1.3957566164
C -0.3281787819 -1.2597636047 -1.0147723654
O 2.0853125758 1.5226778510 -1.1946884122
C 3.3119050355 1.0306825393 -1.1167050953
N 3.7386478110 -0.0962830838 -0.6515741951
C 5.1203668426 -0.0126497533 -0.8387586098
C 6.1432303413 -0.9040829234 -0.5426924159
C 7.4473932681 -0.5237387117 -0.8541177052
C 7.7066443666 0.7155873012 -1.4442548596
C 6.7022023070 1.6337870063 -1.7535375721
C 5.4303230061 1.2173551654 -1.4300589340
O 4.2462856409 1.9019406424 -1.6149027242
Cl 9.3675274934 1.1428495929 -1.8167779576
H -6.8016397777 0.7308448444 0.3194536735
H -7.4023229669 2.2644529113 0.9723915427
H -7.1052579603 0.9015616457 2.0674927110
H -5.2495417959 2.5915525910 2.2150712913
H -4.9365481333 2.3865574696 0.4671340658
H -2.6838557298 -0.8413290065 2.1620309184
H -3.5799690101 -3.1498590717 1.8751649002
H -4.8891549797 -2.0007442666 2.2392773278
H -4.6456174049 -2.5778365866 0.5696371347
H -1.6134409811 0.8815857270 1.3116618314
H 0.3761176904 2.1697803222 0.6221521115
H 1.4628202582 -0.9051379623 -2.1494470544
H -0.5445111491 -2.2201358980 -1.4685022545
H 5.9350403555 -1.8634185026 -0.0834553955
H 8.2751764664 -1.1889453657 -0.6400542124
H 6.9144934146 2.5916329555 -2.2103978504
