48
CONF8
C -3.1047063346 2.3706030307 0.6372068845
Si -1.8004422555 1.1008146639 0.3127575151
O -0.9187425214 0.9284883915 1.6972852354
O -2.4825259975 -0.3228756834 -0.1315080430
Si -2.4054631237 -1.8984435764 0.3480228774
C -3.1399597903 -2.9284731939 -1.0178390856
C -3.2793188760 -2.1106400946 1.9764098974
O -0.8272900710 -2.3280041569 0.5817554097
Si 0.6584317799 -2.0785244645 -0.0698656737
C 1.7142273336 -3.5627701897 0.3070509253
C 0.5225461085 -1.7203662448 -1.8964361936
O 1.2939426650 -0.7571547857 0.7107941996
Si 2.4187748998 0.4169951219 0.3851253859
C 2.6766004258 1.3684711016 1.9639807515
C 3.9867535788 -0.3677119193 -0.2463764657
O 1.8491803198 1.4004272692 -0.7991947354
Si 0.5702847746 2.3645058636 -1.1903647238
C 0.6063003587 3.8979941887 -0.1262694009
C 0.6926160569 2.7335248827 -3.0072515671
O -0.8410836363 1.5518513913 -0.9422063910
H -2.6540385944 3.3308609022 0.9068313386
H -3.7545539101 2.0588451659 1.4604738086
H -3.7253475760 2.5210535069 -0.2510741071
H -0.2126443920 0.2649224625 1.6558323883
H -3.0763938078 -3.9965416250 -0.7860019066
H -4.1939180184 -2.6765585850 -1.1741499011
H -2.6122983488 -2.7513320788 -1.9608149644
H -3.2199026592 -3.1455908348 2.3283066505
H -2.8198299119 -1.4678257001 2.7349752558
H -4.3365787401 -1.8380948378 1.8950800972
H 1.2933552039 -4.4679263865 -0.1427046442
H 1.7777129382 -3.7210374308 1.3885405575
H 2.7317050818 -3.4358410307 -0.0774844389
H 0.1474349086 -2.5939020719 -2.4406375097
H 1.4924008481 -1.4489682611 -2.3272261077
H -0.1634852157 -0.8837674399 -2.0694393729
H 1.7273978918 1.7598084959 2.3449895810
H 3.1126553269 0.7311462521 2.7403709813
H 3.3507656260 2.2161443662 1.8026330210
H 3.8093433674 -0.9136306553 -1.1790931372
H 4.7455206258 0.3945852935 -0.4517289969
H 4.4010689810 -1.0694488126 0.4849306396
H 1.5607133599 4.4258726104 -0.2234847958
H 0.4688603590 3.6403789068 0.9297962451
H -0.1930228165 4.5913437951 -0.4095313083
H 0.6537579585 1.8047021119 -3.5858933968
H -0.1336838243 3.3711466017 -3.3370633412
H 1.6328799397 3.2409438897 -3.2450694350
