45
CONF10
C 2.1686812332 -0.2093277883 -4.2679755369
C 2.6136863913 0.4188172560 -2.9564748933
C 1.4091397734 1.0422496775 -2.2438319778
O 1.0112316569 2.1612905620 -2.5554451526
N 0.8182086533 0.2543756404 -1.3102675943
C -0.2763133419 0.6956790572 -0.5075221400
C -1.5573211047 -0.1967188952 -0.3939671823
N -1.3020630393 -0.2988805226 1.0492978304
C -0.1730930012 0.5103079257 1.0265218544
O 0.5624050585 0.8979096388 1.9031688942
C -2.4369132819 -0.2512532481 1.9410866960
C -3.4442093144 0.7771292627 1.3020954700
S -3.2395810261 0.5387948999 -0.5508199860
C -4.9018378513 0.5216786468 1.6708914775
C -3.0305916163 2.1934546012 1.7022774094
C -3.0370303848 -1.6396989615 2.0959843191
O -3.0132932587 -2.4972827280 1.2427166962
O -3.6116662527 -1.7873711296 3.3018134537
O 3.2337137127 -0.6216228509 -2.1866965554
C 3.9455672911 -0.2655690897 -1.0639404649
C 4.5553613085 -1.3252916236 -0.3869174184
C 5.2892594264 -1.0762944521 0.7649289821
C 5.4210704054 0.2240942070 1.2541112594
C 4.8082412279 1.2707687009 0.5746009767
C 4.0667396715 1.0398448740 -0.5849790055
H 1.6727189218 0.5441661974 -4.8843155953
H 3.0384316804 -0.5918426299 -4.8074344503
H 1.4719545986 -1.0313152403 -4.0799172671
H 3.3298781852 1.2268479033 -3.1482546636
H -0.5165734568 1.7329702038 -0.7586463965
H -1.5140515219 -1.1433572559 -0.9378568679
H -2.1211167420 0.1193061343 2.9213878906
H -5.5418621466 1.2601803672 1.1802225527
H -5.0293466981 0.6299273593 2.7527164104
H -5.2354517235 -0.4750858666 1.3707423182
H -3.1786200959 2.3281610122 2.7799053559
H -1.9822468547 2.3961169790 1.4671436533
H -3.6445033310 2.9247597007 1.1705382975
H -4.0195361109 -2.6704648560 3.3412711697
H 4.4448766901 -2.3320317144 -0.7768235033
H 5.7609278177 -1.9049145782 1.2841377652
H 5.9933540363 0.4159846834 2.1554497602
H 4.8971890098 2.2873542002 0.9450727569
H 3.5959184188 1.8776674382 -1.0854966598
H 1.2364583327 -0.6453790358 -1.1133893309
