17
CONF1
C -2.3545713297 -0.5488717002 0.2532814730
C -2.3490151798 0.7219145477 -0.3325002312
C -1.1560989373 1.3640036106 -0.6285047173
C 0.0445221765 0.7243505061 -0.3337510459
C 0.0658546835 -0.5517129036 0.2545409375
C -1.1572774890 -1.1775725508 0.5430318743
C 1.3457739375 -1.1351077104 0.5236676692
C 2.4843522525 -0.4755680646 0.2195332235
C 2.4668527350 0.8406429184 -0.3883930044
O 3.4250592572 1.5025402595 -0.6956515232
O 1.1958822369 1.3842019007 -0.6379168626
H -3.2955075395 -1.0381161968 0.4787580681
H -3.2883899172 1.2150220914 -0.5597210188
H -1.1324877247 2.3482894281 -1.0819657910
H -1.1461636123 -2.1639829170 0.9973305306
H 1.3838229510 -2.1216673323 0.9785109144
H 3.4673916995 -0.8883654868 0.4097492038
