39
CONF21
C -2.8241245560 3.8500200926 -0.5299471791
N -2.9059644632 2.4011556580 -0.6701751679
C -1.9129790323 1.5065814986 -0.4995352044
C -2.4425087740 0.2500914256 -0.7757769898
C -3.7923105736 0.5187353274 -1.1120025024
N -4.0619875573 1.8232740380 -1.0331116957
C -4.9168691537 -0.3849983277 -1.4741702939
F -4.7328445524 -0.9462681003 -2.7237814145
F -5.0083635455 -1.4370523704 -0.5870499330
C -1.7497935600 -1.0517723425 -0.7761636987
O -2.1302099816 -1.9985872601 -1.4633883282
N -0.6473845363 -1.1049175372 0.0385911722
C 0.2860833523 -2.1619100939 0.0994227211
C 1.6569859768 -1.8534462412 0.2073435708
C 2.5753231535 -2.8945308915 0.3732088709
C 2.1210655396 -4.1991162752 0.3870848039
C 0.7822511878 -4.5253770343 0.2606676606
C -0.1381619623 -3.4924611494 0.1306877957
F 3.0285034737 -5.1990086559 0.5275283454
C 2.1510835185 -0.4584293502 0.1430702916
C 2.9939536618 0.0286467450 1.1442408545
C 3.4883800230 1.3263593795 1.0777658308
C 3.1464312694 2.1540397932 0.0070495230
C 2.3124103399 1.6720175314 -0.9981732307
C 1.8191444055 0.3776296820 -0.9302361876
Cl 3.7485667318 3.7875491901 -0.0998624762
Cl 4.5306491618 1.8951183288 2.3577877772
H -1.8332583960 4.1023969208 -0.1514683742
H -3.5866793633 4.1903304638 0.1740443961
H -2.9814727501 4.3253570670 -1.5013424223
H -0.9153543484 1.8227019382 -0.2250570531
H -5.8747840997 0.1445578651 -1.4825684396
H 0.4645459761 -5.5617980187 0.2846344618
H 3.2590634168 -0.5978825830 1.9887892069
H 2.0590485191 2.3137537187 -1.8345219722
H 3.6368841230 -2.6871533004 0.4548926172
H -1.1949093104 -3.7172451958 0.0739733427
H 1.1812844732 0.0113856288 -1.7276402487
H -0.4046952482 -0.2674456870 0.5483181568
