29
CONF11
C -3.1331089292 -1.4814185068 -0.0527304916
C -2.1766466767 -0.5340618704 0.6193942071
O -2.5697666094 0.8451204020 0.3170317121
C -1.4303934875 1.4963313686 -0.0685975323
C -1.2588255350 2.8436335124 -0.3126333305
C 0.0140535095 3.2501797171 -0.7420391566
C 1.0524774416 2.3385571243 -0.9104720379
C 0.8434370470 0.9795559810 -0.6601199670
C -0.4063738497 0.5721132119 -0.2409874237
O -0.8439655449 -0.6906893785 0.0157851098
O 1.8547765079 0.0602539845 -0.9054683437
C 2.3725637077 -0.5949993642 0.2010524469
O 2.0656866065 -0.3149823194 1.3491696028
N 3.2410196299 -1.5440151014 -0.1827255279
C 3.6086365311 -1.8458925490 -1.5637065707
C -2.0523768303 -0.6953619591 2.1171377086
H -4.1341388814 -1.3438642567 0.3634717884
H -2.8155737851 -2.5108273714 0.1308588972
H -3.1556074530 -1.2922021417 -1.1283165649
H -2.0698484567 3.5505735972 -0.1808383583
H 0.1939223599 4.3010445040 -0.9413085932
H 2.0352906636 2.6627582111 -1.2354200644
H 3.7030402677 -2.0355781514 0.5653259280
H 4.0951441239 -0.9913454641 -2.0450305677
H 4.3063655959 -2.6842598954 -1.5478696884
H 2.7306716798 -2.1300466090 -2.1510182968
H -1.7034662739 -1.7048306604 2.3490201961
H -3.0273862920 -0.5390132966 2.5856236299
H -1.3396077657 0.0332669850 2.5137108954
