49
CONF8
C 0.4537117856 0.1756379768 -1.1049216360
C 1.5079289659 0.8259522021 -1.9930780893
N 2.2663517827 1.8264774548 -1.2430113647
C 1.3926209235 2.8895695297 -0.7433896309
C 0.3126047806 2.3108779803 0.1643089942
C -0.5110263242 1.2215539465 -0.5336359979
C -1.5348859905 0.6411052560 0.4342930853
C -2.6594968613 1.4079046888 0.7585802899
C -3.6135690058 0.9497251684 1.6580550109
C -3.4399198930 -0.2991339054 2.2426132020
C -2.3401863518 -1.0877678604 1.9409547671
C -1.3940137378 -0.6096782073 1.0369626797
Br -4.7490975964 -0.9442721864 3.4804090240
O -1.1978241948 1.8922310951 -1.6125130977
C 3.4101893640 2.3333943928 -1.9981120735
C 4.6018171344 1.3906740804 -1.8536948230
C 5.1504930174 1.3930385310 -0.4151497518
C 4.1032717922 1.3164099149 0.6897957082
O 3.8670110213 2.3014149062 1.3750024428
C 3.4661200829 0.0027072134 1.0179583192
C 2.5895275524 -0.0479427582 2.1083390033
C 1.9274646186 -1.2189616569 2.4422369205
C 2.1585801096 -2.3469447040 1.6679022532
C 3.0389529120 -2.3491769240 0.5981421178
C 3.6959880964 -1.1643786376 0.2832674773
F 1.4989220024 -3.4865976830 1.9698022527
H 0.9676259522 -0.3387450844 -0.2868382332
H -0.1051981654 -0.5777560145 -1.6753589222
H 2.1953993831 0.0500877617 -2.3496983583
H 1.0263151426 1.2762022871 -2.8824260158
H 2.0073631041 3.5839209045 -0.1590912897
H 0.9260138685 3.4545826084 -1.5717218386
H 0.7814078999 1.8718940023 1.0508576205
H -0.3585622489 3.1087085293 0.4991487249
H -2.7916782613 2.3771149823 0.2889578972
H -4.4801177403 1.5536907926 1.9004161282
H -2.2199738614 -2.0635410988 2.3970769475
H -0.5409320939 -1.2386754916 0.8122570113
H -1.7814195304 1.2456068418 -2.0285041279
H 3.6847647128 3.3141636982 -1.5899601001
H 3.1633851182 2.4852986368 -3.0657660343
H 5.4036106325 1.6992056749 -2.5348921438
H 4.3097379210 0.3810557771 -2.1612737446
H 2.4364032637 0.8585958829 2.6836873754
H 1.2371097929 -1.2692558544 3.2770447160
H 3.1993817658 -3.2607643432 0.0337494293
H 5.6847031339 2.3313270952 -0.2396103981
H 4.3892737311 -1.1604610115 -0.5498641328
H 5.8701164479 0.5740858011 -0.2921151156
