40
CONF66
C 2.2259173597 -2.3001116599 -0.1880434098
C 3.4944155988 -2.1040877813 -0.9878294114
O 3.9004831782 -0.6932784101 -0.9637606950
C 3.3172383921 0.1193212800 -1.8476394174
O 2.5202561173 -0.2122911742 -2.6980347519
C 3.7664061908 1.5572333781 -1.6104299964
C 2.5686423592 2.4621428094 -1.3147433759
C 1.8151207919 1.9467229333 -0.1145917461
C 0.6330177982 1.2300180686 -0.2985366067
C -0.0727106135 0.6888382460 0.7719508437
C 0.4374911328 0.8568587810 2.0574217919
C 1.5857527466 1.5897093682 2.2920074963
C 2.2592836492 2.1249503906 1.2014319574
Cl 3.7110166320 3.0562643209 1.5220908447
F -0.1800944568 0.2742544113 3.0992242117
N -1.2606770187 -0.0327324846 0.5579427159
C -2.4745386957 0.2059710744 1.1715839935
O -2.7648185577 0.9987710217 2.0499912057
N -3.3227446450 -0.6933690837 0.4980734253
C -2.5908630661 -1.3471026904 -0.4862480399
N -1.3519196655 -0.9565642481 -0.4737093949
C -3.1456058534 -2.3551347637 -1.4155485761
C -4.7054266205 -0.8112610490 0.8054639730
F -5.0133198480 -2.1087616002 1.1117515747
F -5.4660906652 -0.4881019164 -0.2865034628
Cl 4.6190677058 2.1322328886 -3.1218660496
H 2.3552762961 -1.9400299463 0.8370709104
H 1.9889483200 -3.3679902913 -0.1517322742
H 1.3837468867 -1.7759828189 -0.6456148614
H 3.3796592309 -2.4131674854 -2.0294140656
H 4.3426244814 -2.6242971298 -0.5401457641
H 2.9317220123 3.4796397214 -1.1473699644
H 1.9054289201 2.4667529112 -2.1830722312
H 0.2462541903 1.0876252043 -1.3019069605
H 1.9500292979 1.7123902607 3.3050395272
H -3.9687976997 -1.9327396082 -1.9992451325
H -3.5276011808 -3.2207939258 -0.8661818413
H -2.3531922628 -2.6792361752 -2.0909761875
H -4.9617306934 -0.1570347424 1.6438148627
H 4.5099457089 1.5930747220 -0.8143912246
