76
CONF25
C 3.3228492134 2.9238263906 -0.7536680205
C 3.4281540944 2.1654446509 0.5750788955
C 4.8010395025 1.4604762475 0.6725052862
C 5.1429411385 0.4810865978 -0.4754002457
C 4.3866485844 -0.8166024150 -0.4627017062
O 4.6653173809 -1.5507467712 0.6381571890
N 3.6030764312 -1.1406418474 -1.4283728836
C 2.9673015349 -2.4708174843 -1.4354054609
C 1.9338580962 -2.6283728615 -0.3335506493
O 0.6828444539 -2.7266239702 -0.7591679296
O 2.2434077084 -2.6434659545 0.8553296628
C 2.2956461263 1.1615318757 0.8468964512
C 2.2488987976 0.6779724020 2.3241208620
C 0.8006811580 0.1765455157 2.5687806782
C 0.1582885561 0.2553085560 1.1825811511
C -1.3571025687 0.1765434122 1.0663242963
C -1.9059750807 -1.0872789235 1.7322985551
O -1.1458589950 -2.2397217249 1.2582917066
C -3.4039475107 -1.2566573032 1.4868876973
C -3.8378059380 -1.1105092106 0.0220707935
C -3.4625055422 -2.3500393267 -0.8097917503
C -3.9125469192 -2.2312644631 -2.2534861407
O -3.5006502278 -3.4357921626 -2.9285763098
C -3.3131187183 -0.9831057160 -2.8864306693
C -3.7386303064 0.2461031372 -2.0854516321
C -3.3169031672 0.2161306797 -0.5991439644
C -4.0124294386 1.4133006287 0.0722647891
C -1.7711222479 0.2757712039 -0.4209878557
C -1.1232800148 1.4980525747 -1.0886721373
C 0.4004548951 1.5469578468 -0.9461126602
O 0.9043444457 0.4402773738 -1.7147214176
C 0.8101965772 1.5008250106 0.5406879788
C 0.4003320511 2.8137678846 1.2242700483
H 2.4879437596 3.6277537288 -0.7518015253
H 3.1920127937 2.2526538254 -1.6091717857
H 4.2395529820 3.4991917991 -0.9277202204
H 3.4084630268 2.9155445031 1.3797927896
H 5.5796896326 2.2323470641 0.6688092858
H 4.8866892175 0.9331890955 1.6283718487
H 6.2050090736 0.2198762726 -0.3813264193
H 5.0089964410 0.9542757332 -1.4497038378
H 3.9151076489 -2.1712097974 0.8164959118
H 3.7111266372 -3.2695420473 -1.2898817967
H 2.4887102854 -2.6147933421 -2.4054644313
H 0.0512038788 -2.6516089313 0.0069323567
H 2.5049657273 0.2737818271 0.2460135373
H 2.9802794414 -0.1157906371 2.4981685898
H 2.5054211140 1.5021719235 3.0002549237
H 0.2701128282 0.8255830421 3.2762350114
H 0.7777288538 -0.8381795886 2.9761819476
H 0.5528428016 -0.5819004807 0.6005017353
H -1.7980904393 1.0130853337 1.6255620976
H -1.7331550060 -1.0123872825 2.8159064135
H -1.5639898923 -3.0335251242 1.6148738917
H -3.9117857506 -0.4992712229 2.0963904228
H -3.7298290126 -2.2299370045 1.8792761355
H -4.9370573318 -1.0470773428 0.0150858266
H -2.3800135616 -2.5092296491 -0.8063668500
H -3.9174892676 -3.2378458178 -0.3521515739
H -5.0132388795 -2.1521845877 -2.2881068634
H -3.7647186346 -3.3552468484 -3.8537228056
H -2.2200688589 -1.0847130524 -2.9088186704
H -3.6534532349 -0.8882748129 -3.9259060565
H -4.8363451269 0.3102620005 -2.1119800649
H -3.3733829006 1.1611073529 -2.5624809596
H -3.7435526936 1.5373237675 1.1237880022
H -3.7674909868 2.3461907580 -0.4455486814
H -5.0994070234 1.2841043481 0.0203719936
H -1.3498914174 -0.6086026098 -0.9141280976
H -1.3456388419 1.5000102971 -2.1607544414
H -1.5403079764 2.4245583912 -0.6804051540
H 0.7521795447 2.4865957709 -1.3953033346
H 1.8658222114 0.3684987228 -1.6129974170
H -0.6849591714 2.9178623539 1.3071088337
H 0.8150228674 2.8817417276 2.2336104279
H 0.7705793875 3.6753285864 0.6587207175
