40
CONF48
C 1.5570492716 -2.5151387796 -1.9809386760
C 2.3505527203 -2.1617920863 -0.7484638583
O 3.0369159800 -0.8951558344 -1.0250677749
C 3.6625186438 -0.3267165529 0.0037890163
O 3.7471478663 -0.7967412663 1.1192038204
C 4.2269953247 1.0417057694 -0.3559274864
C 3.1662972339 1.9877290135 -0.9269646843
C 1.9877159288 2.0606961987 0.0106389652
C 0.8675116696 1.2673884026 -0.2354860727
C -0.2205005051 1.2404515708 0.6302099007
C -0.1918601875 2.0550077519 1.7597829346
C 0.9009097100 2.8497107656 2.0520107879
C 1.9791959994 2.8371196270 1.1757293229
Cl 3.3536613768 3.8553536776 1.5637236075
F -1.2598361966 2.0980590011 2.5745913524
N -1.3253802425 0.4115381337 0.3628562555
C -1.8345900272 -0.5457067391 1.2184494133
O -1.5491028818 -0.7885055877 2.3777998585
N -2.7675613301 -1.2045961981 0.3959039835
C -2.7065048621 -0.6546778423 -0.8793746064
N -1.8381968746 0.3107905888 -0.9230084412
C -3.5305805403 -1.0972822060 -2.0247626378
C -3.5503453073 -2.2978473749 0.8571709981
F -3.2559641138 -3.4294503519 0.1436885858
F -4.8790852449 -2.0510610710 0.6464075271
Cl 5.5857324643 0.8221475934 -1.5648803018
H 2.2100757576 -2.6354878080 -2.8495379887
H 0.8111521818 -1.7445992247 -2.1978959801
H 1.0347794897 -3.4603352736 -1.8070668245
H 3.1106068704 -2.9117117645 -0.5099462920
H 1.7105561452 -2.0132836151 0.1266229146
H 3.6198311569 2.9716546064 -1.0716599797
H 2.8337784466 1.6132559107 -1.8974492110
H 0.8397688219 0.6435746473 -1.1221672298
H 0.8917606645 3.4747670825 2.9370631094
H -3.2501603764 -0.5134324916 -2.9020375143
H -4.5944826644 -0.9477689156 -1.8175245524
H -3.3706097381 -2.1595918170 -2.2311785358
H -3.3644625551 -2.4710064291 1.9211852112
H 4.6923233781 1.4496416794 0.5418349708
