44
CONF68
C -4.6011389810 0.9800671628 2.5067408724
N -3.4522189108 0.5093141204 1.7233395791
C -2.8388570762 1.6005656990 0.9326328562
C -3.8118181754 1.8394404405 -0.2558839142
C -4.5046183196 0.4650622858 -0.4467111374
C -3.8629276601 -0.4277288228 0.6527368260
C -2.5969960031 -1.1323255165 0.1463356306
C -1.6431705169 -0.1075370306 -0.4491989008
C -1.4661051929 1.1093414172 0.4522613158
O -0.3561352555 -0.7876621045 -0.6344101033
C 0.4761634163 -0.3059780524 -1.5733534541
O 0.2234684256 0.6355925300 -2.2975678634
C 1.7950396086 -1.0618782315 -1.6065981637
C 1.6981688855 -2.5047322888 -1.0885008777
O 0.7442253041 -3.2832115923 -1.8124773243
C 2.8355826185 -0.2811213446 -0.8250365174
C 2.6264968646 0.0374238194 0.5212716572
C 3.5972184873 0.7286875967 1.2406053971
C 4.7883919739 1.1085535215 0.6250203503
C 5.0030513747 0.7938249373 -0.7146638872
C 4.0309932475 0.1042366975 -1.4356272791
H -4.2562758593 1.7076004363 3.2487641486
H -5.3944777798 1.4553776814 1.9057841494
H -5.0431922295 0.1324746775 3.0407487539
H -2.7116450289 2.4904616654 1.5571241757
H -4.5396958128 2.6150335299 -0.0037316627
H -3.2782940886 2.1724396905 -1.1512202751
H -4.3475290877 0.0478903559 -1.4458583696
H -5.5840894204 0.5443810829 -0.2933931490
H -4.5607245400 -1.1707509910 1.0513946793
H -2.8529972783 -1.8834052519 -0.6093231462
H -2.1122350074 -1.6397049056 0.9880069647
H -1.9865322454 0.2034729538 -1.4398479124
H -0.8627678611 0.8293796377 1.3234383608
H -0.9438003807 1.9042649355 -0.0901576436
H 2.6708593242 -2.9833931368 -1.2389438902
H 1.4789215202 -2.5077190060 -0.0135027596
H 3.4219479044 0.9718319072 2.2840989168
H 5.5447171048 1.6478043686 1.1867050310
H 5.9278679857 1.0869157124 -1.2020805405
H 4.1999522999 -0.1386500977 -2.4808419125
H 1.6997164419 -0.2515717342 1.0086643908
H 2.0953184020 -1.0852120952 -2.6590906455
H -0.1348271487 -3.0066847286 -1.5218321526
