45
CONF25
C -4.0340855447 2.2291761019 -1.5783661544
C -4.7808482838 0.9613112859 -1.2785048751
C -4.2450513201 -0.1364074672 -0.7192079196
C -2.8451462272 -0.3155549485 -0.2966729996
C -2.1984611803 -1.6960904716 -0.4609262681
C -2.4469591303 -1.0952584518 0.9305109460
C -1.2823561712 -0.5869592436 1.7527240119
C -3.4987514548 -1.7957484683 1.7624474023
C -0.8494181628 -1.9024320640 -1.0040023753
O -0.4036255486 -2.9900682233 -1.3186821973
O -0.1443888908 -0.7410598372 -1.1325042790
C 1.2617273796 -0.8368403718 -1.4460407597
N 2.0219370408 -0.3435495208 -0.3336007900
C 2.4603583884 -1.1112567992 0.7284199700
O 2.3397626600 -2.3140730696 0.8433442722
C 3.1101566567 -0.1484444889 1.7023607628
N 2.8314437012 1.1502575520 1.1104810821
C 2.2626121160 1.0387513132 -0.1208161283
O 1.9869542623 1.9222317823 -0.9134448514
C 3.4771697776 2.3771869971 1.5572791327
C 4.8943911485 2.4185354012 1.2038738398
C 6.0623618448 2.4241584844 0.9074499413
C -6.2349815759 0.9950178763 -1.6594141651
H -2.9777697097 2.1899009380 -1.3093841389
H -4.4925815240 3.0707462080 -1.0438672267
H -4.1081357139 2.4647558882 -2.6475109842
H -4.9025499663 -0.9896829203 -0.5624869282
H -2.1677769193 0.5010930636 -0.5204034471
H -2.8643277081 -2.5159557593 -0.7120100180
H -1.6644117286 0.0444627067 2.5623507290
H -0.7371168321 -1.4226650899 2.2071582200
H -0.5820061554 0.0061275367 1.1622255216
H -4.2945822109 -2.2303354717 1.1548918543
H -3.9502750107 -1.0858822322 2.4650909328
H -3.0367600351 -2.6002971667 2.3446985709
H 1.5360043830 -1.8745193095 -1.6423395395
H 1.4410030000 -0.1987359665 -2.3122288631
H 2.6695970567 -0.2561781955 2.7001477684
H 4.1877672792 -0.3553397196 1.7639151230
H 2.9495823565 3.2210146460 1.1007636028
H 3.3572067315 2.4616515957 2.6433650753
H 7.0957029153 2.4373196554 0.6434349061
H -6.7409831611 0.0561793080 -1.4198068919
H -6.3478092678 1.1888416288 -2.7338649800
H -6.7513533195 1.8125762526 -1.1402197775
