47
CONF70
C -7.1542960679 1.7437629068 0.3430129411
O -6.8022055206 0.6844713423 1.2884570972
P -5.9462824948 -0.5731439157 0.8145105971
S -5.6223656102 -1.8298339521 2.2548758338
O -6.7521453255 -1.0639414657 -0.4735705418
C -6.2834625018 -2.2202901390 -1.2251912689
O -4.6091528938 0.0180847718 0.0894897004
C -3.4566181473 0.3276716548 0.8142811009
C -2.3397499788 -0.4806657453 0.6386294621
C -1.1646834806 -0.1683165713 1.3086947462
C -1.1086915256 0.9616312897 2.1301496841
C -2.2379649871 1.7664614364 2.2911783748
C -3.4242314258 1.4441285649 1.6378418422
S 0.3610869197 1.3699794428 3.0643862037
C 1.6707389494 1.1344234598 1.8688102901
C 2.8699741308 0.5718455209 2.3108434451
C 3.9425789019 0.4339850910 1.4347252466
C 3.7886242580 0.8374390674 0.1158932098
C 2.6013089750 1.3949292126 -0.3417175402
C 1.5436453414 1.5588375827 0.5429177611
O 4.8514986450 0.7375287042 -0.7866697531
P 5.3995544494 -0.6979279795 -1.3073498608
S 4.0524438324 -2.0727533700 -1.5754508306
O 6.5460211961 -0.9849397844 -0.2327817354
C 7.2496408653 -2.2609296187 -0.2401801179
O 6.2592676759 -0.2502218330 -2.5773133024
C 5.6013488085 0.0113733380 -3.8499799471
H -7.9026689891 1.3745636232 -0.3606570967
H -6.2634195404 2.0897544480 -0.1873747051
H -7.5658438974 2.5486135632 0.9507966411
H -6.2714842034 -3.1026638427 -0.5801539876
H -6.9994728130 -2.3532115858 -2.0353016803
H -5.2864044852 -2.0253670517 -1.6283900603
H -2.4012691710 -1.3513248110 -0.0055655852
H -0.2931743961 -0.8033169778 1.1895611545
H -2.1933634150 2.6505207161 2.9186132414
H -4.3043073740 2.0682050072 1.7518427619
H 2.9700702284 0.2367962189 3.3380860529
H 4.8792374114 0.0025974399 1.7708905773
H 2.5163516768 1.7057586223 -1.3775637122
H 0.6188074691 2.0075986835 0.1964264237
H 6.5394496044 -3.0788039444 -0.0959916704
H 7.7922126421 -2.3847259443 -1.1809502441
H 7.9480587085 -2.2127362925 0.5944554741
H 4.8867536013 0.8318194969 -3.7413118277
H 6.3978302597 0.2941563505 -4.5373333659
H 5.0967525825 -0.8918225348 -4.2015250121
