47
CONF91
C -3.2212668444 1.3147431861 4.2664098564
C -3.6493222399 1.4024652537 2.8173548000
C -4.2863174397 0.1657687064 2.2367474886
C -2.8337223042 0.5372467176 1.8574567819
C -2.4972423121 0.9829304959 0.5009796455
O -3.1983705382 1.5688638583 -0.2980359002
O -1.2008872699 0.6346950797 0.2128438195
C -0.7188420504 1.0645722866 -1.0861583544
C -1.3830155816 0.2870996279 -2.1398076040
N -1.8765814279 -0.3350716130 -2.9783876030
C 0.7766245487 0.8657229843 -1.1089810851
C 1.6137463943 1.9766880356 -1.1788863617
C 2.9942445436 1.7903200351 -1.1685460067
C 3.5400582612 0.5146407016 -1.0890187436
C 2.6855459961 -0.5877342426 -1.0274852816
C 1.3054125760 -0.4219621887 -1.0399711797
O 3.1447216108 -1.8783830024 -0.8838413693
C 4.3764627755 -2.2215256509 -1.4283162612
C 5.2503495803 -2.9401036078 -0.6213081946
C 6.4617695998 -3.3739594542 -1.1550555175
C 6.7935272290 -3.0844699636 -2.4765680396
C 5.9026664426 -2.3639273254 -3.2714711606
C 4.6851505459 -1.9312518695 -2.7547251848
C -5.3704348670 0.2386202294 1.2576525012
C -6.3236654876 -0.6791025313 1.0958233700
Br -7.7183407395 -0.4518089632 -0.1842507057
Br -6.4355861280 -2.2999307412 2.0889285881
C -4.1138980933 2.7799752689 2.4075466948
H -2.8960803059 0.3047673202 4.5297213594
H -4.0589278282 1.5903891343 4.9160074748
H -2.3960247641 2.0086644919 4.4581318967
H -4.3222682943 -0.6919160560 2.9012659705
H -2.0735821984 -0.0835600843 2.3183841554
H -0.9693049254 2.1197014066 -1.2403781182
H 1.1925285887 2.9748204585 -1.2361339934
H 3.6551197749 2.6497083968 -1.2138004406
H 4.6152339421 0.3747908001 -1.0716831791
H 0.6617422998 -1.2949101296 -0.9902346114
H 4.9768342507 -3.1528083342 0.4068863229
H 7.1489485353 -3.9360096106 -0.5304484066
H 7.7397230318 -3.4207975485 -2.8874965793
H 6.1503549228 -2.1431627874 -4.3050362777
H 3.9826636685 -1.3782959780 -3.3699498366
H -5.4233149074 1.1060623292 0.6090158388
H -4.9951433819 3.0517753817 2.9982819315
H -4.3661967291 2.8574862393 1.3507060972
H -3.3250915447 3.5081739765 2.6228780875
