28
CONF60
O -1.6001530747 2.2779397383 -1.7973109930
C -2.1819875969 1.7391414185 -0.6274407534
C -2.1736375567 0.2065905866 -0.6369144022
O -0.8838828707 -0.3030416877 -1.0518000629
C -0.2247577418 -0.8975402813 0.0521075464
C -0.9933428040 -0.4733203731 1.3057657224
C -2.4124768278 -0.3782109262 0.7592173189
O -2.9255138696 -1.7133216077 0.7202185328
N 1.2062973874 -0.5549619747 0.0264774901
C 2.1379076946 -1.5597531707 -0.1044755460
C 3.4677993358 -1.3458283433 -0.1564093078
C 3.9890618278 0.0014557370 -0.0952486868
O 5.1590537361 0.3372384073 -0.1318066787
N 2.9685465668 0.9725006984 0.0095753292
C 1.6023712519 0.7883311639 0.0636693635
O 0.8180510177 1.7203002888 0.1396852712
H -0.6574836002 2.0727808828 -1.7376877219
H -1.6759789272 2.1138809734 0.2734269557
H -3.2255289500 2.0762863295 -0.6007415691
H -2.9018807917 -0.1644829478 -1.3696914189
H -0.2567487164 -1.9906492927 -0.0535413322
H -0.6494037241 0.4997060627 1.6596727666
H -0.9182538690 -1.2099790039 2.1082292699
H -3.0553678227 0.2740626590 1.3686848453
H -3.7686216148 -1.7026815808 0.2535589735
H 1.7204758403 -2.5597704582 -0.1600395209
H 4.1658157973 -2.1647508980 -0.2561054916
H 3.2696405111 1.9380782033 0.0389240947
