44
CONF70
C -2.9374101621 0.6878058671 2.8174995329
N -3.6848427630 0.8139402758 1.5731133587
C -3.1064889631 1.6958045681 0.5439063825
C -4.1489523824 1.5538194855 -0.5836446464
C -4.7097645593 0.1140874401 -0.3954699108
C -3.9346781356 -0.4294209008 0.8220658670
C -2.6228770190 -1.1234710581 0.3961481622
C -1.8060122463 -0.1917413462 -0.4860106223
C -1.7103209635 1.2163933578 0.0896940886
O -0.4624456533 -0.7787479899 -0.5897729922
C 0.2754778957 -0.4599356482 -1.6606720441
O -0.1098176471 0.2314122264 -2.5840464275
C 1.6840823858 -1.0280981116 -1.5692321769
C 1.7138695309 -2.4677056917 -1.0398475062
O 0.8947034132 -3.3388827232 -1.8225790335
C 2.5530789277 -0.1044068803 -0.7346513910
C 2.3022977959 0.0949868192 0.6277037755
C 3.1195784100 0.9351885775 1.3788363665
C 4.1954710486 1.5887314950 0.7812647848
C 4.4506279132 1.3959114318 -0.5741504517
C 3.6339811367 0.5549351067 -1.3261664778
H -1.9169644921 0.2831697424 2.7152105730
H -2.8571388952 1.6745413895 3.2872761486
H -3.4881107303 0.0313833366 3.5005888450
H -3.0325479855 2.7211027796 0.9238412764
H -4.9413075385 2.2954147258 -0.4547567226
H -3.7031175581 1.7092723994 -1.5703925093
H -4.5677166977 -0.5138871291 -1.2796369610
H -5.7795591995 0.1432044828 -0.1741570032
H -4.5309684256 -1.1216642979 1.4271496781
H -2.8472369757 -2.0499280240 -0.1441981441
H -2.0406862120 -1.3941062387 1.2845676486
H -2.2211312993 -0.1600885692 -1.4972204836
H -1.0219369238 1.2123417635 0.9431425991
H -1.3028805701 1.9033726825 -0.6595740015
H 2.7579304342 -2.8093873260 -1.0235562964
H 1.3217622075 -2.5095658109 -0.0211028237
H 2.9132900453 1.0806124904 2.4348393354
H 4.8305351000 2.2442995449 1.3688066844
H 5.2863902925 1.9004706438 -1.0491742154
H 3.8367016892 0.4064588350 -2.3830544075
H 1.4623682655 -0.4004007574 1.1036605450
H 2.0694606399 -1.0264679085 -2.5940469882
H 1.2983381961 -3.4185831183 -2.6963808414
