20
CONF17
C -0.1260257400 -0.3493274590 0.6734578077
O 0.0083457763 -1.4945477625 -0.2040667847
C 1.3403303441 -1.7418208437 -0.4157530359
O 1.7312467222 -2.6431031335 -1.1311615028
C 2.1280117857 -0.7874184739 0.3394841865
O 3.4833532792 -0.7720675857 0.3419624038
C 1.2850496034 0.0354165629 0.9898628454
O 1.4966619150 1.0810162960 1.7978702710
C -0.9168374414 0.7621776849 -0.0060060599
O -0.1764389270 1.2103362252 -1.1361639771
C -2.3073122645 0.2977642023 -0.4052752576
O -2.9569063962 1.4384044966 -0.9841452385
H -0.6668484579 -0.6740681646 1.5719099569
H 3.7913508907 -1.4929624914 -0.2289921898
H 2.4474381371 1.2446979685 1.8908845456
H -1.0170338856 1.5720566603 0.7366414454
H -0.7786108064 1.7660505112 -1.6510341093
H -2.8481439680 -0.0572231157 0.4841732969
H -2.2314412171 -0.5196247978 -1.1328452450
H -3.6861891431 1.1242431404 -1.5308036549
