50
CONF111
C 1.3616649649 0.8708876086 -1.1579096783
C 1.7399134421 -0.5013022776 -1.6609155799
C 1.4021493109 -1.6205163008 -0.8928332641
C 1.8227371683 -2.9033647634 -1.2913863880
C 2.6094682717 -3.0928527515 -2.3995728276
C 2.9806481535 -1.9928331010 -3.1996498237
C 2.4876449228 -0.6928195950 -2.8614765077
C 2.8044261566 0.3204110220 -3.8499884713
N 3.6490890436 0.0834430261 -4.8493341482
C 4.1446321407 -1.1697238460 -4.9785172141
N 3.8055572925 -2.2304718112 -4.2586690745
N 5.0927653791 -1.3309893694 -5.9530681116
N 2.2630395179 1.5628504599 -3.8350623147
C 0.5819503685 -1.5018263244 0.3668382461
N -0.7972479359 -1.1177171072 0.0502930313
C -1.6074417558 -0.5247698459 1.0062075483
C -1.3469624732 -0.6923907128 2.3745595963
C -2.2109067245 -0.1185389080 3.3124417201
C -3.3357868049 0.6093257513 2.9068066033
C -3.5781668286 0.7768682305 1.5335239410
C -2.7259646970 0.2162636673 0.5851872507
O -4.6829235944 1.5144504322 1.2271981869
C -4.9683852710 1.7312379364 -0.1604997549
O -4.2048437161 1.1356891480 3.8409336159
C -3.8612234727 2.4811332100 4.2272381051
O -2.0404309163 -0.2205778327 4.6613260305
C -0.9005461117 -0.9506601559 5.1326978947
H 1.1572477834 0.8475140605 -0.0871157471
H 2.1650032958 1.5916844691 -1.3233332039
H 0.4497367752 1.2542054295 -1.6347983154
H 1.5365951975 -3.7575445500 -0.6837178741
H 2.9685334681 -4.0783451110 -2.6774776609
H 5.2771052430 -2.2769610157 -6.2492460025
H 5.1236476577 -0.6282572620 -6.6752512571
H 2.4197240462 2.1211295058 -4.6610551741
H 0.5912228684 -2.4674866912 0.8872924280
H 1.0352635957 -0.7722449010 1.0575726406
H -0.9150253568 -0.7468744949 -0.8813558445
H -0.4952117648 -1.2735321359 2.6984470744
H -2.9065091758 0.3422664262 -0.4756281373
H -5.8742632542 2.3378596131 -0.1826440527
H -5.1478055435 0.7823691825 -0.6793021980
H -4.1504421256 2.2718813077 -0.6509289311
H -2.8607926417 2.5092612608 4.6755414264
H -3.8958506705 3.1518272171 3.3603726401
H -4.6034495508 2.7949733635 4.9646104945
H 0.0325684181 -0.4938377628 4.7828799527
H -0.9488238043 -0.8985606420 6.2208331602
H -0.9425509167 -1.9982259251 4.8125570479
H 1.4155114267 1.7461404747 -3.3286957383
