24
CONF2
C -1.0155765722 -2.0084720928 1.3791028596
N -1.4341993926 -0.7824220717 0.7150488205
C -0.5956886920 0.2545103239 0.3266428773
C -1.3976494033 1.2315036118 -0.2451942173
C -2.7379662467 0.7916747867 -0.2077183367
C -2.7202624400 -0.4574743903 0.3856408139
Br -4.1534669145 -1.6096997946 0.7231942232
Br -4.2451849134 1.6950526791 -0.8466728892
Br -0.7709672847 2.8360628096 -0.9876403211
C 0.8380616865 0.2151571337 0.4925753751
C 1.7812625161 -0.5993879665 -0.1168105203
C 3.0618743206 -0.2286131330 0.3458178612
C 2.8674481266 0.8173074774 1.2295042816
N 1.5304145396 1.0844980631 1.3257977033
C 0.9299385162 2.0963478908 2.1830643308
Br 4.1451519353 1.7899554142 2.1874061290
Br 4.7037477467 -0.9781102326 -0.1424259360
Br 1.3925318242 -1.9296446781 -1.3811588311
H -1.5924085376 -2.1525970828 2.2964448138
H -1.1585646088 -2.8698074315 0.7203753310
H 0.0440433048 -1.9184310964 1.6214871782
H 1.1971125829 3.0992792341 1.8382635936
H 1.2704220417 1.9634612856 3.2134629273
H -0.1535906181 1.9810678346 2.1360792740
