52
CONF150
C -0.8164141858 -2.4065272458 -0.6751569079
C -1.2556341455 -1.6379183583 0.5369908475
C -2.2562685598 -0.7407094610 0.5560869098
C -3.0980076805 -0.3716769599 -0.5945293439
C -3.0722592847 1.0836283204 -1.1738899400
C -4.3057462212 0.5130527676 -0.4943045507
C -4.7825097869 1.0402886492 0.8403003362
C -5.4450034766 0.1961162632 -1.4434448752
C -2.1456180392 2.0398749405 -0.5558287518
O -2.0193590136 2.3006600160 0.6255318434
O -1.3525135308 2.6010328199 -1.5157876704
C -0.2722827913 3.4267955409 -1.0158153786
C 0.7833699732 2.6133440180 -0.3116828640
C 1.1328117446 1.3520650664 -0.7895799559
C 2.1089741228 0.6099308072 -0.1306614827
C 2.7549491733 1.1109171668 0.9984949877
C 2.4103849020 2.3801049806 1.4547417765
C 1.4296398407 3.1300869874 0.8121617278
O 2.3386873177 -0.6575789989 -0.6275599626
C 3.5495303327 -1.2817485722 -0.3645871748
C 4.7571684842 -0.6792709734 -0.7083191516
C 5.9422768327 -1.3766611529 -0.4958436693
C 5.9196271562 -2.6624829475 0.0439056321
C 4.7017638758 -3.2531924322 0.3719326432
C 3.5079455961 -2.5628933144 0.1727513208
C -0.4585075609 -1.9264437102 1.7773889917
H 0.2530594363 -2.2376813590 -0.8497999614
H -0.9399104774 -3.4843786780 -0.5085571913
H -1.3555078415 -2.1328632718 -1.5832478031
H -2.4546551222 -0.2311517464 1.4945920852
H -3.1411875967 -1.1040786994 -1.3952475758
H -3.0978812464 1.1328037821 -2.2574030963
H -5.3923987059 1.9368800360 0.6842198068
H -3.9685054737 1.3021484442 1.5133594591
H -5.4137121368 0.2843929350 1.3210159118
H -6.1046705013 -0.5564304956 -0.9972635955
H -6.0387384992 1.0951952330 -1.6423205746
H -5.0765478836 -0.1925295426 -2.3973484414
H 0.1329797322 3.9016706944 -1.9139923776
H -0.6690194140 4.1985574520 -0.3504082960
H 0.6419734327 0.9269284464 -1.6593759429
H 3.5037552704 0.5205679447 1.5142627437
H 2.9018774333 2.7764110539 2.3378664866
H 1.1519569895 4.1079587020 1.1938035254
H 4.7629269915 0.3188275609 -1.1344070107
H 6.8877059034 -0.9145243594 -0.7622704378
H 6.8475091446 -3.2016374702 0.2037641621
H 4.6761487333 -4.2547157616 0.7896825180
H 2.5493766226 -3.0047030193 0.4248780008
H 0.5954524163 -1.6593220446 1.6212095708
H -0.4766365362 -2.9981737332 2.0135489019
H -0.8323538259 -1.3709455008 2.6414082945
