40
CONF165
C 3.0763542673 3.0244182885 -4.1867207767
C 1.7875588597 2.7201247688 -3.4649798385
O 2.1400179788 2.2854564008 -2.1073628457
P 1.0061456990 1.9719729828 -1.0281440227
S -0.3533474324 3.3140828514 -0.7157847882
O 1.8526259396 1.6037557996 0.2617090309
C 2.8542295021 0.5217030453 0.2410617202
C 3.1635721666 0.1774337072 1.6758535419
O 0.4579478000 0.5545116117 -1.6811831433
C -0.5458359197 -0.1993792459 -1.1311831056
N -0.7627536175 -0.1169307025 0.1678689562
C -1.7443094618 -0.9020649226 0.6549564922
N -2.4843046410 -1.7430820047 -0.0654284018
C -2.2374508292 -1.8162772458 -1.3898148514
C -3.0780291256 -2.7654816872 -2.1818978401
C -1.2518510584 -1.0387797201 -1.9841015584
C -2.0370378401 -0.7501353736 2.1280282782
C -2.5958134981 -2.0192466036 2.7669635861
C -3.0014145971 0.4355855099 2.3119968108
H 3.7116299345 2.1363173287 -4.2428443051
H 3.6240334046 3.8250156862 -3.6823151494
H 2.8448015405 3.3502548394 -5.2051230544
H 1.1463457115 3.6037028083 -3.3840656827
H 1.2311278541 1.9110177085 -3.9493160019
H 3.7329085224 0.8924678346 -0.2943675881
H 2.4345697272 -0.3344013945 -0.2966161439
H 2.2674734342 -0.1828099642 2.1884332198
H 3.5566263745 1.0470823759 2.2091384300
H 3.9193230264 -0.6135292294 1.6967297366
H -2.9686049102 -3.7789256781 -1.7825196787
H -2.8007566007 -2.7624842500 -3.2372789931
H -4.1342812561 -2.4936883106 -2.0859808706
H -1.0389145792 -1.0772805275 -3.0452450587
H -2.7043001213 -1.8680471826 3.8453263499
H -3.5774825212 -2.2656647060 2.3537214693
H -1.9322297730 -2.8738252225 2.6031876542
H -2.5892187927 1.3525355618 1.8800653385
H -3.9598434157 0.2214259771 1.8265324394
H -1.0860138437 -0.4891648427 2.6068655637
H -3.1848950028 0.6051873256 3.3774556900
