18
CONF1
C 3.9554712089 0.6668547880 0.0000509496
O 3.0810894321 -0.4753271543 -0.0000076305
C 1.7509249333 -0.2595417076 -0.0000153876
C 0.9508037587 -1.4152979308 -0.0000266773
C -0.4231800706 -1.3069178986 -0.0000145210
C -1.0046560874 -0.0362037191 -0.0000382777
C -0.2258013614 1.1171000791 -0.0000511785
C 1.1558245541 1.0108774698 -0.0000671640
N -2.4539195713 0.0837356304 0.0000727352
O -3.1227770121 -0.9506685434 0.0000608153
O -2.9462790864 1.2131532288 -0.0000026272
H 3.7994463830 1.2738895019 0.8981613477
H 4.9656877166 0.2589169037 0.0001021468
H 3.7995466322 1.2739133594 -0.8980596400
H 1.4333813583 -2.3864071604 -0.0000431230
H -1.0495060333 -2.1899746925 -0.0000275671
H -0.7007374300 2.0901439587 -0.0000999752
H 1.7553398983 1.9118626949 -0.0001256543
