46
CONF130
C -3.6206364211 -1.4776372623 1.5745781817
C -2.1898317039 -1.9192316947 1.7702961143
C -1.2566752714 -1.9990089129 0.5843790879
C -1.0408385896 -0.9214523291 1.6631270616
C -1.2617332159 0.5085372210 1.3815281887
O -2.0837001258 0.9944987947 0.6271119756
O -0.3927070637 1.2611046214 2.1057764879
C -0.4378419816 2.6883251625 1.8485760655
C 0.1171601546 3.0311839510 0.4906211260
C 1.1498314015 2.2665222331 -0.0494828368
C 1.6488177915 2.5834729812 -1.3091121443
C 1.1610986074 3.6763819426 -2.0220427251
C 0.1482030957 4.4468547374 -1.4617676445
C -0.3864945302 4.1226213584 -0.2168654199
O 2.6861319026 1.8814563136 -1.8908104134
C 2.8648544133 0.5457560294 -1.5602154352
C 1.8097137447 -0.3635545132 -1.6078836465
C 2.0652779202 -1.7034886508 -1.3350006489
C 3.3558856776 -2.1331968347 -1.0280777413
C 4.3994757815 -1.2117778165 -0.9951500399
C 4.1580202054 0.1347882532 -1.2577777357
C -1.6800873542 -1.6381652471 -0.7728449436
C -1.6402794224 -2.4657168833 -1.8165994584
Cl -2.1146250080 -1.9708403399 -3.4205638080
Cl -1.1180790793 -4.1284902030 -1.7232488667
C -2.0159743396 -2.9800027443 2.8349762754
H -4.0139521430 -1.0636997114 2.5092439308
H -3.7291367676 -0.7263235732 0.7934645865
H -4.2283348636 -2.3493417096 1.3089532658
H -0.5211433448 -2.7967631092 0.6379527575
H -0.1981565683 -1.1084813687 2.3196931963
H 0.1765344566 3.1166913599 2.6455199741
H -1.4638926074 3.0519041938 1.9510800633
H 1.5480987754 1.4208560211 0.4999122523
H 1.5718993898 3.9040338792 -2.9998796277
H -0.2439259591 5.2948342270 -2.0143919312
H -1.2007200497 4.7085439639 0.1986696793
H 0.8070971332 -0.0270517531 -1.8533766628
H 1.2507247424 -2.4189602507 -1.3742252115
H 3.5452548151 -3.1810585207 -0.8199456753
H 5.4078887878 -1.5368412013 -0.7591570515
H 4.9577321562 0.8676100490 -1.2324796788
H -2.0489765393 -0.6342555521 -0.9565933752
H -2.6110571288 -3.8641200394 2.5816507521
H -2.3607192270 -2.6026481704 3.8039892044
H -0.9701803774 -3.2838689070 2.9334160866
