41
CONF7
C 2.8625581744 3.5255596254 0.8101498257
C 2.8510118450 2.0466713425 0.5756479863
C 2.7981369438 1.1283962081 1.6182921562
C 2.7669376132 -0.2412863299 1.3998818739
C 2.7945945194 -0.7753502577 0.1165524167
C 2.8693091489 0.1392460780 -0.9291696833
C 2.8913409145 1.5061511944 -0.7049223175
F 2.9439643709 2.3311176367 -1.7696698917
F 2.9046741102 -0.3076469198 -2.1987394940
C 2.6926697759 -2.2485613387 -0.1537856619
O 1.5099110399 -2.5410012773 -0.9489420899
C 0.3192711368 -2.3408654211 -0.3241752072
O 0.2317711876 -2.0623334264 0.8565134524
C -0.7823202808 -2.4540436978 -1.2928625147
C -1.9503360368 -1.4422627078 -1.1645434230
C -2.1948693999 -2.8987720481 -0.9263821836
C -2.9191658625 -3.6479474246 -2.0253809203
C -2.5067034621 -3.4079987997 0.4613076578
C -1.9490906579 -0.4535684881 -0.0770884717
C -1.4569002075 0.7796659172 -0.1913588023
C -1.4982359455 1.8052729274 0.9018199523
F -2.1790753502 2.9178936580 0.5300428116
F -0.2544860526 2.2167386707 1.2573365284
F -2.0918511977 1.3228727768 2.0112612819
Cl -0.6594418571 1.3491783799 -1.6380591518
F 2.7052931572 -1.0556549339 2.4681336591
F 2.7554178777 1.5728614166 2.8906519460
H 2.3992222738 3.7668976610 1.7675873123
H 3.8909248593 3.9032580308 0.8234261027
H 2.3247548526 4.0423728017 0.0129166045
H 2.6678901709 -2.8134021166 0.7788923979
H 3.5209998232 -2.5924564992 -0.7750892053
H -2.2444336070 -1.0431261817 -2.1329949252
H -2.6802933485 -3.2420221711 -3.0123794532
H -2.6428755083 -4.7072654357 -2.0082194536
H -4.0012741086 -3.5731362569 -1.8735213608
H -2.2597914067 -4.4727645336 0.5244864462
H -1.9539952114 -2.8859699394 1.2415619919
H -3.5797488731 -3.2980713258 0.6523700017
H -2.3905478898 -0.7194329067 0.8782332060
H -0.4656288960 -2.6568237735 -2.3099780961
