63
CONF24
C -10.4864137246 -0.1039204024 3.6077809492
C -9.4461692430 0.2996614824 2.5645470939
C -9.3033443296 -0.7399607767 1.4519673442
C -8.3464643769 -0.3326778633 0.3276760524
C -6.8894125865 -0.1838939083 0.7670837117
C -5.9461621075 0.1361639046 -0.3919329909
C -4.4883669908 0.2776030756 0.0426949025
C -3.5428907463 0.6170756576 -1.1086109822
C -2.0846448324 0.7408051695 -0.6700976321
C -1.1348975386 1.0922379859 -1.8142562215
C 0.3228774154 1.2037202127 -1.3699372490
C 1.2733586320 1.5434385176 -2.5187172786
C 2.7229297274 1.7799914641 -2.0851886211
C 3.3970685138 0.5592269079 -1.4576541594
C 4.8759332501 0.7881634327 -1.1486012780
C 5.5484836182 -0.4214700732 -0.5017156940
C 7.0261051501 -0.1948898521 -0.1862181260
C 7.6926084186 -1.4069968958 0.4616940374
C 9.1674818792 -1.1764066740 0.7851455933
C 9.8486145805 -2.3919128707 1.4023067120
O 9.8309513438 -3.5395496372 0.5466799804
H -11.4745068274 -0.2246397018 3.1504770953
H -10.2201047105 -1.0579910277 4.0755859152
H -10.5732643896 0.6449018545 4.4009656996
H -8.4794343806 0.4531395295 3.0585747988
H -9.7222378277 1.2655748221 2.1201659124
H -10.2960016214 -0.9329774002 1.0233152239
H -8.9678912668 -1.6917367144 1.8878619606
H -8.6898119742 0.6126027561 -0.1158765956
H -8.3973257080 -1.0826364954 -0.4728506586
H -6.5627448252 -1.1125476263 1.2568004500
H -6.8036793527 0.6081758823 1.5219121647
H -6.0235188681 -0.6517626393 -1.1542510274
H -6.2732597325 1.0656175367 -0.8788978770
H -4.4133548243 1.0560852688 0.8148557675
H -4.1594833506 -0.6568634918 0.5186394234
H -3.8640665861 1.5579720877 -1.5769852720
H -3.6242008854 -0.1550335453 -1.8864749092
H -2.0050364305 1.5058423358 0.1149687988
H -1.7631476594 -0.2037199120 -0.2092563281
H -1.2168707155 0.3305699234 -2.6024162746
H -1.4510914989 2.0402964535 -2.2715030314
H 0.4079953266 1.9735751239 -0.5894239902
H 0.6243401169 0.2575567974 -0.9026547638
H 1.2443661320 0.7348935882 -3.2626188735
H 0.9027753090 2.4427244107 -3.0286347994
H 3.3086112021 2.0965866739 -2.9586520416
H 2.7569298362 2.6166794712 -1.3732825546
H 2.8799924221 0.2817666794 -0.5302329847
H 3.2947857200 -0.3002982546 -2.1357159705
H 5.4064729355 1.0480205721 -2.0754526825
H 4.9771728756 1.6586256488 -0.4850934266
H 5.4481528288 -1.2917142091 -1.1652096748
H 5.0159403352 -0.6813477501 0.4238187585
H 7.1266262498 0.6770527366 0.4756847586
H 7.5594528447 0.0627742989 -1.1122553237
H 7.1594064938 -1.6671873838 1.3868145415
H 9.2695947636 -0.3325860537 1.4821635899
H 9.7078992675 -0.8832063062 -0.1277438677
H 9.3152604973 -2.7012761705 2.3082171410
H 10.8810439891 -2.1423944200 1.6938099751
H 10.3115242748 -3.3124288767 -0.2570930799
H 7.5997121593 -2.2775822264 -0.1984867525
