40
CONF63
C 0.2701082459 2.8304746608 -1.8649120910
C 1.1663380166 2.3980798906 -0.7315960816
O 1.7949868877 1.1281573308 -1.1189602483
P 2.1275314009 -0.0451841706 -0.0913580127
S 2.2198065893 0.4042080593 1.7953905915
O 3.4119693183 -0.7295631576 -0.7489103100
C 4.7127574702 -0.0633064208 -0.6189192579
C 5.7036275548 -0.8585298637 -1.4323158003
O 1.1333918324 -1.2972597346 -0.4972474624
C -0.2237697668 -1.2295305626 -0.3648588015
N -0.7738748962 -0.0691697381 -0.0488012500
C -2.1159455735 -0.0536380860 0.0426466173
N -2.9114700238 -1.1053008070 -0.1538494127
C -2.3287021812 -2.2789192149 -0.4699152946
C -3.2358957304 -3.4485651301 -0.6816894262
C -0.9487153270 -2.3924976428 -0.5904554753
C -2.7549362002 1.2592669569 0.4255211818
C -3.2642769697 1.1823244083 1.8724439811
C -3.8807397674 1.6443622790 -0.5385112315
H -0.1822224028 3.7945179252 -1.6114920286
H -0.5299585536 2.1013378705 -2.0211449870
H 0.8358996982 2.9473911938 -2.7933292454
H 1.9788651700 3.1087249391 -0.5539214082
H 0.6045629952 2.2489317854 0.1926106232
H 4.9803526819 -0.0414425655 0.4423248282
H 4.6187208551 0.9637915260 -0.9888576722
H 5.4191177218 -0.8742919477 -2.4877494470
H 5.7705053811 -1.8859328609 -1.0644500388
H 6.6899602771 -0.3934484511 -1.3446655223
H -3.8071952873 -3.6431865612 0.2318740226
H -2.6779096684 -4.3460796249 -0.9533080714
H -3.9584758707 -3.2188500685 -1.4711968954
H -0.4604215173 -3.3245793411 -0.8462917046
H -4.0509219060 0.4258705430 1.9582900575
H -2.4562365879 0.9237066233 2.5640374354
H -3.6799426366 2.1491902206 2.1728555657
H -3.5214385167 1.6842903752 -1.5718082302
H -4.6992224945 0.9210866795 -0.4852300376
H -1.9644765604 2.0157863768 0.3734655027
H -4.2731507365 2.6306298936 -0.2720943527
