47
CONF8
C -4.5386481742 -2.8564632989 0.3423656507
C -3.9481964827 -1.4509604154 0.5076904272
C -4.9350330850 -0.4148554791 -0.0347159482
C -2.5612321267 -1.3785809047 -0.1540176533
C -1.5538415282 -2.3953544843 0.4022816969
C -0.2223121281 -1.9365732722 -0.1812160076
C -0.2634631160 -0.3996201311 -0.0821784995
C 0.5257278570 0.1399034079 1.1249222475
C 2.0103391052 -0.0165849000 0.9336143872
C 2.7344043246 -1.0160518069 1.5847274349
C 4.1017355055 -1.1747826886 1.3763088655
C 4.7510468892 -0.3141919126 0.5021252652
Cl 6.4762289009 -0.5008991981 0.2299831572
C 4.0628192981 0.6989053205 -0.1560348622
C 2.6984737346 0.8383210688 0.0662685887
C -1.7974215228 -0.0219368037 -0.0329623097
O -2.1824716787 0.5648440296 1.2043790738
C -2.1319967358 0.9280783721 -1.2026127669
N -1.2968107349 2.1240335196 -1.1874360252
C -0.3422404834 2.5185813307 -2.0567953849
N 0.2639162368 3.6129242588 -1.6193002205
C -0.3681092986 3.8494445247 -0.4411491443
N -1.3232793707 2.9762826077 -0.1334134015
H -4.6243348864 -3.1215369188 -0.7189771262
H -3.9317564225 -3.6212038186 0.8337751456
H -5.5419246472 -2.9012310131 0.7774905265
H -3.8094306514 -1.2557878953 1.5775805394
H -5.0281019638 -0.4893618963 -1.1261088201
H -4.6349622678 0.6012427002 0.2301674620
H -2.6867353538 -1.5899185054 -1.2292754578
H -1.5439347331 -2.3278180260 1.4986853560
H -1.7945838288 -3.4266795035 0.1330196281
H -0.1595198780 -2.2467954364 -1.2312573689
H 0.6490966254 -2.3593405322 0.3276120426
H 0.1930638551 0.0376852481 -0.9777050500
H 0.1966652289 -0.3730378780 2.0344525254
H 0.3000338429 1.2028184005 1.2635470916
H 2.2258333971 -1.6817975717 2.2766125691
H 4.6560697764 -1.9527347770 1.8883695224
H 4.5885302427 1.3705807986 -0.8248444526
H 2.1613112174 1.6380913010 -0.4392914187
H -3.1802980368 1.2337552800 -1.1658915575
H -1.9439228527 0.4221962285 -2.1547635777
H -0.1345516131 1.9922324438 -2.9792019490
H -0.1317351206 4.6821167456 0.2080568419
H -5.9306272721 -0.5824184294 0.3886992825
H -1.9056208738 1.4956084865 1.1976344847
