119
CONF800
C -10.0974459014 2.5692731934 2.3738084799
C -10.5283351098 1.7410041662 1.1646302937
C -11.7638582009 0.9002494205 1.4929674895
C -9.3753021998 0.8322314608 0.6895381886
C -9.8128103973 0.0285236926 -0.5428573441
O -10.0880669635 0.6239333504 -1.5908698230
N -9.8551785338 -1.3181030632 -0.4581215862
C -10.2302794502 -2.1362406438 -1.6313780217
C -9.8934720558 -3.5356120705 -1.1699749982
C -8.6970291676 -4.2555502916 -1.7312154394
C -10.1007770554 -4.7330010724 -2.0361078337
C -10.1537176758 -3.5230552168 0.3189855232
C -9.6001511267 -2.1431414709 0.7406238260
C -8.1410472832 -2.1804162407 1.0898156803
N -7.6540042103 -2.6163919753 2.2417103703
C -6.2912013135 -2.4965564980 2.1310515908
C -5.9427398226 -1.9690885504 0.9008736362
N -7.1492853435 -1.7796739649 0.2541130507
C -4.6593872918 -1.5779478072 0.3516879206
C -3.4756998944 -2.1174250188 0.8988544533
C -2.2673567414 -1.6933770684 0.3986855987
C -2.1686296598 -0.7570046102 -0.6440591534
C -3.3289135733 -0.2265493123 -1.1937183733
C -4.5603786940 -0.6371654597 -0.6888495210
C -0.7527039114 -0.5308459468 -0.9482612641
C 0.0302070230 -1.3321109375 -0.1027418066
C -0.8783056749 -2.1180217804 0.8097791527
F -0.6293414184 -1.8540575613 2.1455812178
F -0.6926212952 -3.4832981365 0.6799753517
C 1.4069658160 -1.3326271117 -0.1524170460
C 2.0520483660 -0.4993006069 -1.0870936878
C 1.2647605693 0.2992621970 -1.9338455039
C -0.1271135730 0.2945406960 -1.8749549578
C 3.5251887166 -0.4621474978 -1.1704418975
C 4.1809425017 0.7472251296 -1.4319848068
C 5.5657738068 0.7185850593 -1.4952356245
C 6.3188607963 -0.4630963343 -1.3050593309
C 5.6597116651 -1.6662193416 -1.0519979315
C 4.2744184977 -1.6484678617 -0.9864712728
N 7.6726374225 -0.1861478297 -1.3891661181
C 7.7406358861 1.1103757931 -1.6161703375
N 6.5076702845 1.7050502905 -1.6946067304
C 8.9950024767 1.9091539694 -1.8084702451
C 9.4555783804 1.9904556996 -3.2905922220
C 10.6291010501 2.9943596773 -3.3595020131
C 11.8085921690 2.2170680196 -2.6925665229
C 11.1276667993 0.9011367233 -2.2751887701
C 10.1772378894 0.6424697833 -3.4486627486
N 10.1652346206 1.2492561636 -1.2025459645
C 10.3810746255 0.9982703005 0.1021859473
O 11.3714587867 0.3762806921 0.5080202239
C 9.3612955813 1.5288889088 1.1190543537
C 10.0532026711 2.5319421582 2.0667457817
C 10.6690198932 3.6768484028 1.2591168081
C 9.0630487058 3.0671425192 3.0994794051
N 8.8071302531 0.3788475672 1.8190896234
C 7.4710872505 0.1963392060 1.9535853267
O 6.6076394922 1.0220186465 1.6901207415
O 7.2077965484 -1.0418740706 2.4521556976
C 5.8114113612 -1.3046540847 2.7110766488
N -8.2021168066 1.5952112294 0.2740189552
C -7.0238519082 1.7227394379 0.9326538266
O -6.0950988305 2.4201976921 0.5409425438
O -6.9875296011 0.9884644741 2.0703601869
C -5.7459944100 1.0640498247 2.8043394016
H -10.9073155887 3.2393128291 2.6787518761
H -9.8589137702 1.9162818394 3.2214068980
H -9.2178103060 3.1813622578 2.1538258804
H -10.7684626351 2.4155425679 0.3317949393
H -12.5874203889 1.5463684144 1.8109993018
H -12.1080692974 0.3196443163 0.6302386687
H -11.5482867221 0.2049620402 2.3130102979
H -9.0753760890 0.1822957654 1.5128551898
H -11.3038590348 -2.0199482734 -1.8360565007
H -9.6719347447 -1.8189797244 -2.5167076756
H -8.1439945995 -3.7725673045 -2.5311007521
H -8.0996804393 -4.8482870187 -1.0449919967
H -10.4413703268 -5.6460365346 -1.5576829565
H -10.4816865418 -4.5682415276 -3.0394848851
H -11.2310065228 -3.5500124446 0.5215330866
H -9.6705672675 -4.3389506577 0.8596459380
H -10.1483265051 -1.7637196654 1.6086784689
H -5.6301645878 -2.7534484298 2.9475660394
H -7.2794807533 -1.4414012346 -0.6878576937
H -3.5224563359 -2.8574633993 1.6914149652
H -3.2872409048 0.5047576230 -1.9944994484
H -5.4603545602 -0.1910770851 -1.0999340585
H 1.9858131484 -1.9437034421 0.5332759109
H 1.7566534299 0.9237732583 -2.6727913595
H -0.7044758203 0.9182485699 -2.5500215031
H 3.6281650868 1.6737644974 -1.5441915592
H 6.2163331883 -2.5872626694 -0.9108548872
H 3.7443261346 -2.5789623233 -0.8107464357
H 6.3309047813 2.6897323436 -1.8271563315
H 8.8420108597 2.9201735483 -1.4093425061
H 8.6298305285 2.1990777064 -3.9725873434
H 10.8522544414 3.2351184549 -4.4024372462
H 10.3947439018 3.9291611354 -2.8414625651
H 12.6137158560 2.0149271351 -3.4054527183
H 12.2335556495 2.7403925744 -1.8325781629
H 11.7874231152 0.0943076456 -1.9606261861
H 10.7108940118 0.5629539340 -4.3991241348
H 9.5324506384 -0.2259063673 -3.2995753600
H 8.5237867099 2.0389766200 0.6366510462
H 10.8550623346 1.9885970336 2.5835001665
H 11.4367400619 3.3221041977 0.5638389429
H 9.8966105762 4.1971818619 0.6792181517
H 11.1344891250 4.4067709318 1.9282286471
H 8.6075106758 2.2586831186 3.6784651159
H 8.2611870820 3.6313973416 2.6092357935
H 9.5737701929 3.7389295704 3.7967571742
H 9.4250210159 -0.3937842438 2.0225100714
H 5.7760700106 -2.3312481951 3.0756739280
H 5.4271446561 -0.6183592131 3.4704825407
H 5.2271657535 -1.2071034503 1.7923452669
H -8.2912462485 2.1475243395 -0.5667319706
H -5.5637294956 2.0882165211 3.1396346265
H -5.8795849360 0.3997852480 3.6577708703
H -4.9134706508 0.7220280005 2.1841864526
