40
CONF1
C -4.0604522270 -0.1973016093 0.6619880887
C -2.6056675735 -0.4499842715 1.0965515127
C -2.6082218919 -1.4381465393 2.2758511108
C -1.8450112068 -0.9699824645 -0.1320682232
C -1.6517187852 -2.3348818998 -0.3576886397
C -1.0260398786 -2.7832587200 -1.5190023078
C -0.5798306052 -1.8756692770 -2.4712661260
C -0.7599654724 -0.5128144857 -2.2532372528
C -1.3868616145 -0.0659175442 -1.0970053627
N -2.0744897644 0.8547592296 1.5160391096
C -0.8098765649 1.1885527600 1.9547865198
O -0.5762928579 2.3092691397 2.4016023299
N 0.1535145862 0.1982118802 1.8796232603
C 1.5538888854 0.6227387291 1.9340341408
C 2.0224225158 1.1675707224 0.6064283222
C 2.0509948379 2.5463060350 0.3780619202
C 2.4142232779 3.0673236328 -0.8583864526
C 2.7587854381 2.2102827437 -1.8988373293
C 2.7358348337 0.8333779523 -1.7038393372
C 2.3661838573 0.3354912909 -0.4609896388
Cl 2.3189806970 -1.4148083740 -0.2522790166
H -4.0968177827 0.5319966412 -0.1525246022
H -4.6546097205 0.1725041406 1.5058516036
H -3.1594198159 -2.3501377202 2.0313322781
H -1.5960727780 -1.7120808873 2.5830643518
H -3.1050546009 -0.9653661660 3.1272900131
H -0.8813680015 -3.8481124799 -1.6717282135
H -0.0834495275 -2.2259616666 -3.3703477196
H -0.4007126768 0.2089791256 -2.9799472894
H -1.5091774665 0.9989389105 -0.9261796769
H -0.0253921131 -0.5610286690 1.2339823761
H 2.1609665170 -0.2340588811 2.2387089863
H 1.6334594892 1.3975562548 2.6982879211
H 1.7592553634 3.2047202474 1.1897799134
H 2.4270887318 4.1415303604 -1.0093362193
H 3.0468626746 2.6073304272 -2.8667874947
H 2.9986632641 0.1501225396 -2.5031901689
H -1.9847730040 -3.0635492541 0.3725254499
H -2.7458518331 1.5765046665 1.7261010712
H -4.5070065017 -1.1290917521 0.3072951645
