53
CONF5
C -3.3607884249 1.6247306781 -0.1060472118
C -1.9264756957 1.2418033638 0.2759695218
N -1.4398996750 0.5194771366 -0.9087371239
C -2.5284818269 0.2629603981 -1.8656488791
C -3.7817417792 0.4647278994 -1.0233467085
N -4.0521356043 -0.7259636555 -0.2134966827
C -5.1378261595 -0.5003060122 0.7481852039
C -4.6849124694 0.5334084717 1.7734956713
C -4.3089526877 1.8430357239 1.0743932567
C -0.1267905842 0.1960009469 -1.1254866242
C 0.4358872168 0.1369372065 -2.4253668845
F -0.3533320605 0.4527289873 -3.4822136394
C 1.7327975356 -0.2079299459 -2.6670381845
C 2.6051837058 -0.4492353531 -1.5976935439
C 3.9796540098 -0.8451268202 -1.8836484311
O 4.4075381200 -0.9312333372 -3.0577664089
C 4.7884049344 -1.1489594723 -0.7299256981
C 4.2803787097 -0.9589599629 0.5232794383
N 3.0205385854 -0.5352711577 0.7826311380
C 2.7143818272 -0.1256492631 2.1477548528
C 2.4057739068 1.3120051772 2.4066718386
C 3.7153509414 0.7305455875 2.8699559743
C 2.1198106701 -0.3498335087 -0.2751898105
C 0.7437406269 -0.1293823018 -0.0589587242
O 0.2172145631 -0.3110083778 1.1995220972
C -0.5093010058 -1.5524363781 1.3107322777
C 6.2040057482 -1.6145882177 -0.8374692888
O 6.6651235671 -1.7264742017 -2.0859903650
O 6.8831300061 -1.8684176528 0.1363323363
H -3.3314570937 2.5339752949 -0.7200648512
H -1.2976093628 2.1183516681 0.4763999901
H -1.9224640383 0.6173412286 1.1744177446
H -2.5278442685 0.9734223676 -2.7019906907
H -2.4527327031 -0.7501495896 -2.2785399826
H -4.6412529697 0.7570910072 -1.6550431558
H -4.2903642854 -1.4966379543 -0.8283617816
H -6.0661240966 -0.1432017642 0.2582744738
H -5.3710091737 -1.4509322993 1.2402709228
H -3.8294962084 0.1283363502 2.3263288922
H -5.4842190342 0.7169604646 2.4999511553
H -3.8653733368 2.5490945819 1.7867870258
H -5.2249033336 2.3153564928 0.6958230630
H 2.1162844581 -0.2627016454 -3.6793874010
H 4.9162172013 -1.1281700692 1.3855261021
H 2.1729515101 -0.8661511397 2.7275510072
H 1.6289657652 1.5296531739 3.1302583448
H 2.4413730618 1.9815075390 1.5536366433
H 3.8589668001 0.5343465544 3.9266543962
H 4.6093558533 1.0377562937 2.3383753078
H 0.1403632957 -2.3961241826 1.0458320995
H -1.4005207441 -1.5506316774 0.6704692204
H -0.8113142875 -1.6320472916 2.3577246777
H 5.9239291624 -1.4540307745 -2.7055474091
