44
CONF27
C 3.9119791327 -0.5628649727 -0.3105826522
N 3.2764239648 0.6264976158 -0.8836646012
C 4.2809149513 1.6817508146 -1.0388081039
C 2.6644242584 0.3127654814 -2.1820505037
C 1.3203463303 -0.4172186145 -2.0552851748
C 0.2437624999 0.4654565767 -1.5101813098
C -0.5925487673 0.2043521916 -0.4915690413
C -1.6321129569 1.1931343408 -0.0934511944
C -1.2255676797 2.5314329958 0.0606131370
C -2.1106888358 3.5297802205 0.4408966988
C -3.4424234140 3.2028041611 0.6875964482
C -3.8562048959 1.8856998601 0.5432027747
C -2.9803075300 0.8612588152 0.1571954130
C -3.6013769973 -0.5179061567 0.0198667486
C -2.7585547042 -1.6326187961 -0.6095365821
C -1.5676361354 -1.9679187196 0.2394415560
C -1.4946612271 -3.1428628460 0.9886592798
C -0.3941555981 -3.4030519413 1.8034077904
C 0.6449759962 -2.4786603394 1.8806387986
C 0.5814232922 -1.3030739082 1.1362251561
C -0.5133206073 -1.0452191077 0.3079191548
H 3.1862191512 -1.3731156749 -0.1988334888
H 4.3102104460 -0.3274872264 0.6822690965
H 4.7446364956 -0.9319933561 -0.9404747977
H 3.8096134928 2.5922819777 -1.4230519024
H 4.7297842556 1.9087525341 -0.0660085847
H 5.0948847624 1.3925914005 -1.7315330660
H 3.3531095194 -0.2868997412 -2.8090006450
H 2.4918958714 1.2575578033 -2.7124228147
H 1.0328945247 -0.7268873333 -3.0710000908
H 1.4199287969 -1.3325797109 -1.4653542593
H 0.1045082056 1.4049580166 -2.0469683287
H -0.1802315565 2.7741610045 -0.1048929538
H -1.7610446965 4.5510815804 0.5564010309
H -4.1520239569 3.9664864447 0.9907262264
H -4.8980266386 1.6314875941 0.7249718011
H -4.5218337366 -0.4056056379 -0.5659923677
H -3.9222441345 -0.8485426019 1.0175076125
H -3.3919104052 -2.5170424664 -0.7279734590
H -2.4318208896 -1.3253038354 -1.6109049618
H -2.3077863239 -3.8619873949 0.9291815389
H -0.3503456519 -4.3233173633 2.3779943688
H 1.5023796581 -2.6699528174 2.5187604571
H 1.3825128450 -0.5721803856 1.1945437961
