37
CONF362
C -0.5304106586 -1.2053853904 -3.1119620299
C -1.7925398026 -1.7507407817 -2.4816256323
O -1.5296788309 -2.3240510624 -1.1578934805
P -1.3324029077 -1.3623211585 0.0868290009
O -2.0265817278 -0.0534389909 0.0629395821
O -1.6637623269 -2.3866613816 1.2498773636
C -1.5116531724 -1.9496386051 2.6466483516
C -2.7989684446 -1.3459724712 3.1578435700
O 0.2940707876 -1.1980556860 0.1852062953
P 1.1066901446 0.1536866801 0.5703100650
O 0.8887590637 0.6479959388 1.9497350030
O 2.5580981555 -0.3911467409 0.2087835534
C 3.7249900706 0.2383747324 0.8289424163
C 3.9888591088 1.6202047122 0.2713353168
O 0.7748727627 1.1846837769 -0.6001547095
C -0.0398853893 2.3787568240 -0.3401087531
C -0.7695964425 2.7161249016 -1.6162978106
H -0.7538054562 -0.8837761939 -4.1344415675
H 0.2470082391 -1.9733507731 -3.1505133127
H -0.1489696997 -0.3423283134 -2.5590223224
H -2.5634629542 -0.9802801150 -2.3794529857
H -2.1983426606 -2.5892113785 -3.0512835222
H -0.6748313390 -1.2456857983 2.7188747331
H -1.2481088507 -2.8633271442 3.1838774793
H -3.0476836828 -0.4355646951 2.6069079961
H -3.6242201186 -2.0571651621 3.0644181315
H -2.6774358834 -1.0905443283 4.2154889474
H 4.5430046855 -0.4476473097 0.5996258978
H 3.5705809814 0.2617802898 1.9124787461
H 3.1931372281 2.3197714029 0.5444279124
H 4.9283875271 1.9986839456 0.6866603576
H 4.0757639141 1.5902402274 -0.8181917481
H -0.7344548322 2.1683336567 0.4754357980
H 0.6468864855 3.1759223881 -0.0367446415
H -1.3461620276 3.6347236799 -1.4691406603
H -0.0677892708 2.8759288074 -2.4399354877
H -1.4603618604 1.9110812309 -1.8798774138
