50
CONF242
C -0.2612043668 0.2759506686 -1.7535538166
C -1.4638555126 -0.6316961357 -1.8568689425
C -1.3313342757 -2.0526455089 -2.3349893103
C -1.6500824134 -1.7809736575 -0.8580667329
C -0.6348232434 -2.0178022022 0.1733270687
O 0.5551686676 -2.1896530524 0.0208993436
O -1.2223569522 -1.9844433579 1.4131716524
C -0.2831792805 -1.9977302134 2.5102044774
C -1.0823986129 -2.2578202050 3.7081158651
N -1.6754075884 -2.4472656496 4.6804720659
C 0.4649771581 -0.6814052175 2.6320068774
C -0.1723690135 0.5057760209 2.2820744937
C 0.5340278666 1.6997665012 2.3662086286
C 1.8521772582 1.7271563397 2.8198532308
C 2.4675760050 0.5318636403 3.1742304188
C 1.7840479555 -0.6777555439 3.0765102684
O -0.1581610553 2.8506552595 2.0498551717
C 0.4933230941 3.8550450611 1.3494628783
C 0.1798265934 5.1654098371 1.6943843783
C 0.7465770596 6.2110166649 0.9705827067
C 1.6217953452 5.9487634485 -0.0813622537
C 1.9229566639 4.6291671658 -0.4142972845
C 1.3587931363 3.5726417621 0.2948066143
C -0.0275393036 -2.5979252560 -2.7493522319
C 0.2224145572 -3.8207705291 -3.2239551222
C -0.7311614763 -4.9750097066 -3.3507928581
F -1.0320372518 -5.2400729144 -4.6481864638
F -1.8948346701 -4.7472980001 -2.7090070292
F -0.2127775909 -6.1135578235 -2.8335201934
Cl 1.8264470566 -4.2348986126 -3.8089831892
C -2.7371371553 0.0919332744 -2.2366057527
H -0.4878070714 1.1002191641 -1.0688891310
H 0.6354799027 -0.2252151676 -1.3869835987
H -0.0434852422 0.7058358910 -2.7373026167
H -2.1922951207 -2.4393829602 -2.8683135718
H -2.6708048913 -1.9690517841 -0.5431281949
H 0.4308426149 -2.8209512047 2.3861939741
H -1.1969150293 0.5150106088 1.9258159040
H 2.3856044780 2.6689782176 2.8892729083
H 3.4945856282 0.5441786628 3.5242226240
H 2.2762398870 -1.6103110966 3.3338752679
H -0.5006874809 5.3518094890 2.5185744648
H 0.5051333041 7.2352853670 1.2368020837
H 2.0646914239 6.7666076331 -0.6399408715
H 2.5969564667 4.4151339780 -1.2379257670
H 1.5845982402 2.5442221118 0.0328037123
H 0.8217998926 -1.9233951630 -2.7151918991
H -2.9773588567 0.8530170313 -1.4868944717
H -2.6031796822 0.5927729542 -3.2015355157
H -3.5828472189 -0.5961853853 -2.3180802444
