46
CONF6
C 4.8184433468 -3.7530680563 2.1977764499
C 5.0584586859 -2.2738956544 1.9760024279
O 4.7961241606 -1.8983635652 0.5983314202
C 3.5340244004 -1.6693580720 0.2273502321
N 3.3949964285 -1.3770964320 -1.0619701228
C 2.1241986183 -1.1423005920 -1.4316194425
N 1.0502609318 -1.1968724599 -0.6134473498
C 1.3433302152 -1.4852683942 0.6512056133
N 2.5615648842 -1.7386282183 1.1477608690
N 0.3212722449 -1.5391066303 1.5796736312
C -1.0530416293 -1.2711435298 1.4689494096
O -1.7540664236 -1.2684829090 2.4626488692
N -1.4946382796 -1.0396332320 0.1839189977
S -3.0553361842 -0.4351578582 -0.1307919990
O -3.0031689515 -0.0574690815 -1.5467098870
O -4.0397763992 -1.3884662869 0.3671815812
C -3.1952601100 1.0647668633 0.8632228346
C -3.9589109944 0.9880823849 2.0207040206
C -4.1907507789 2.1407877613 2.7634929595
C -3.6816312460 3.3602313546 2.3324156662
C -2.9278801944 3.4312749663 1.1660518890
C -2.6583963815 2.2803481086 0.4245722374
C -1.7320185252 2.3869776999 -0.7427470389
O -0.7243225524 1.7299018112 -0.8813448461
O -2.1214998606 3.3646077456 -1.5794215701
C -1.2606250459 3.5588151608 -2.7238350250
N 1.8996243025 -0.8294178703 -2.7197700532
C 0.5757370691 -0.5692515473 -3.2647797769
H 5.4108115837 -4.3478720760 1.4971144938
H 5.1152631017 -4.0225472328 3.2164263562
H 3.7617634043 -3.9993838339 2.0705422474
H 4.4490548608 -1.6594019872 2.6435527969
H 6.1126890829 -2.0198120373 2.1114387969
H 0.6122611464 -1.7320818289 2.5273096316
H -0.7704233926 -0.8603091924 -0.5286992368
H -4.3629391685 0.0298027688 2.3229670148
H -4.7783393951 2.0823106210 3.6732429110
H -3.8724453848 4.2630060533 2.9030709670
H -2.5294984928 4.3807099618 0.8258897471
H -1.2406065440 2.6499947250 -3.3308678591
H -0.2458596774 3.8037864649 -2.4000850938
H -1.7024696318 4.3840806027 -3.2808716283
H 2.7083168140 -0.8308081157 -3.3179867020
H 0.0771246446 0.2320945385 -2.7100743600
H 0.6878891669 -0.2640676763 -4.3070375117
H -0.0593041303 -1.4623156298 -3.2278118719
