41
CONF97
C -2.9261323111 -1.7118248532 -2.6206581735
C -2.2281079879 -1.6437098706 -1.2634296385
C -3.2384554173 -1.7038817332 -0.1111193427
N -1.3132607873 -0.4889192120 -1.1963836857
C -1.9424299699 0.8266262474 -1.0664431889
C -0.9693175022 1.9238390859 -1.5419859584
O -0.3512474105 1.5337960571 -2.7543882021
C 0.0596135514 2.3230135863 -0.4906108652
O 0.7934460804 1.1589974084 -0.1035133462
C 1.8108344377 1.2942336842 0.7948373035
C 2.1125640820 2.4849242023 1.4568815979
C 3.1604793663 2.5160759728 2.3747677429
C 3.9050907347 1.3737399646 2.6340775870
C 3.5985571360 0.1939416276 1.9591892633
C 2.5618955733 0.1295149298 1.0344561836
C 2.2359820388 -1.1478815417 0.3120544805
C 1.0972866948 -1.9429677734 0.8963349765
C 0.3729607637 -1.6092954079 1.9610680300
H -3.4997780973 -2.6399856360 -2.7048964319
H -3.6278238771 -0.8826934848 -2.7582859911
H -2.1939023861 -1.6775588025 -3.4320475777
H -1.5754717688 -2.5244511783 -1.1844467282
H -2.7299344806 -1.6320501750 0.8562416140
H -3.7975037667 -2.6451674974 -0.1351629983
H -3.9644931867 -0.8861531783 -0.1777180393
H -0.6703040413 -0.6222013541 -0.4219516887
H -2.8174557638 0.8602319030 -1.7241661890
H -2.2897301372 1.0604653950 -0.0452215579
H -1.5528964852 2.8346010567 -1.7433751250
H -0.2858567892 0.5634930161 -2.6796550754
H -0.4528789258 2.7549140885 0.3834897598
H 0.7428060584 3.0710895939 -0.9158462055
H 1.5429085933 3.3857812144 1.2658613373
H 3.3890197729 3.4460622256 2.8855880384
H 4.7211825174 1.3984819066 3.3478248473
H 4.1795248078 -0.7044889220 2.1500073886
H 2.0003655564 -0.9329308569 -0.7392127615
H 3.1270935376 -1.7892973354 0.2947646105
H 0.8773611263 -2.8751082217 0.3747254759
H 0.5637033991 -0.6911833139 2.5104167005
H -0.4256942335 -2.2514324105 2.3179318226
