41
CONF5
C -0.1013027544 0.1840336806 -2.5877004810
C 0.0482250143 -0.9952886868 -1.6671314057
C 0.1974969109 -2.2789914354 -2.2042284086
C 0.3386763466 -3.3866445280 -1.3827380070
C 0.3316697628 -3.2330099712 0.0003243754
C 0.1892521364 -1.9735101598 0.5775221084
C 0.0537968063 -0.8598845947 -0.2713630432
N -0.0878141797 0.4391227853 0.3210690584
C -1.3742053306 0.8846417383 0.8834228714
C -2.5404013152 0.0055794506 0.4358981925
C -1.6682749467 2.3108607538 0.4133077335
O -1.5499914351 2.7034040210 -0.7238785900
O -2.2092206911 3.0292987640 1.4139222813
C -2.5605530755 4.3830255778 1.0582304289
C 0.9731241999 1.2816463219 0.5316609882
O 0.8316691048 2.3602113811 1.0963758493
C 2.3326379345 0.8130244401 0.0253840661
O 2.7553015699 -0.2973953603 0.8055768657
C 3.5971844827 -1.1859394777 0.0837562281
C 0.1933135977 -1.8067603974 2.0690369378
H 0.8728083815 0.4886681999 -2.9911843714
H -0.7268727488 -0.0834406494 -3.4443583935
H -0.5390352865 1.0493513699 -2.0869537687
H 0.1933046467 -2.3993214300 -3.2839156602
H 0.4505379646 -4.3748923254 -1.8176831737
H 0.4417579389 -4.1009089451 0.6439213022
H -1.3061156622 0.9052248078 1.9782800455
H -3.4621792815 0.3947121471 0.8769264506
H -2.6381735980 0.0230524922 -0.6529586511
H -2.4127205332 -1.0303004197 0.7578300803
H -3.2957445949 4.3876228671 0.2491627743
H -1.6669959981 4.9254028292 0.7391523044
H -2.9772921198 4.8230833241 1.9638521331
H 2.2566651444 0.5367471976 -1.0368996186
H 3.0287561227 1.6553101176 0.1274014554
H 4.5134640110 -0.6832617301 -0.2611433325
H 3.0667412051 -1.6124923495 -0.7815552604
H 3.8692395981 -1.9922027194 0.7689713551
H 0.4555683911 -2.7470480695 2.5591201256
H -0.7899573820 -1.5000380517 2.4448097886
H 0.9156598686 -1.0426924789 2.3687764503
