63
CONF125
C 6.5366510987 -1.4765105090 -4.6214000006
C 6.6916975418 -2.3238662050 -3.3622231964
N 5.7360724745 -1.9340806732 -2.3197257817
C 6.0950195847 -0.8519340113 -1.4030289913
C 4.8669185389 -0.0633374728 -1.0199238333
N 3.8632135162 -0.9642300655 -0.4193986411
C 3.6760039413 -2.2023163632 -0.9839750316
O 2.8598174811 -3.0328008020 -0.6026626245
C 4.5582886814 -2.5722083399 -2.2054364143
O 4.1607884741 -3.4588027766 -2.9581959045
C 3.0305891096 -0.3872862569 0.5980461132
O 3.1480474208 0.8011013774 0.8767276751
N 2.1697484043 -1.2209864855 1.2160290474
C 1.1959364316 -0.6613718597 2.1329094439
C 0.3198224269 -1.7529778265 2.7113146552
C 0.2104005602 -1.9024407500 4.0939672446
C -0.6157057578 -2.8875295368 4.6297611442
C -1.3351288744 -3.7300690874 3.7863277158
C -1.2298174625 -3.5822484285 2.4043593719
C -0.4103710680 -2.5946736437 1.8669767049
C 0.2937040122 0.3585154991 1.3999829251
O 0.0282181264 0.2658987787 0.2067932093
N -0.2237702737 1.3238373273 2.1970397800
C -1.1380851753 2.3006972077 1.6930859074
C -2.5117008666 1.8737235270 1.0848454064
N -2.1492764894 2.6081008710 -0.1397954436
C -0.8840827569 2.9591534156 0.3146941476
O 0.0139652630 3.5837649883 -0.1967764287
C -3.1610711257 3.4171298134 -0.7921490889
C -4.5215763661 3.0096876310 -0.1156334353
S -4.0618429230 2.6539296787 1.6680160790
C -5.0471500336 1.7413434179 -0.7907770598
C -5.5760285601 4.1088045649 -0.1488069085
C -2.8710714438 4.9041430717 -0.6109113584
O -3.2631823975 5.5986830368 -1.6930856848
O -2.3859712892 5.4018142291 0.3788481606
H 5.5405681818 -1.6098982929 -5.0526164045
H 7.2806301108 -1.7796974349 -5.3638502114
H 6.6843324973 -0.4143861900 -4.4032995104
H 6.5278173276 -3.3805041678 -3.5873252290
H 7.6961116493 -2.2134811429 -2.9393413900
H 6.7910999633 -0.1828041663 -1.9164675656
H 6.5998771473 -1.2541755148 -0.5135448227
H 5.1244635995 0.6912231588 -0.2776524096
H 4.4371848283 0.4392473578 -1.8951259401
H 2.0509019491 -2.1552941587 0.8358740207
H 1.7174939899 -0.1462362895 2.9476144907
H 0.7769418706 -1.2494042002 4.7517540538
H -0.6920032904 -2.9992189135 5.7067522143
H -1.9761155378 -4.5001858956 4.2036257106
H -1.7906481635 -4.2346620685 1.7425717803
H -0.3433627120 -2.4741790919 0.7892138918
H -1.2746262113 3.0918553340 2.4355645383
H -2.6246789432 0.7960030980 0.9369452387
H -3.2385521032 3.2006837933 -1.8633034129
H -5.9391704718 1.3859209271 -0.2694668358
H -4.3019265465 0.9413083376 -0.7958805668
H -5.3147312247 1.9677297981 -1.8291168199
H -5.2494227487 5.0109381783 0.3758604551
H -6.4948966181 3.7483219093 0.3214590955
H -5.8056803110 4.3658323020 -1.1877724967
H 0.0418380656 1.3639385106 3.1697667783
H -3.1153530474 6.5450379523 -1.5207577486
