46
CONF9
C -1.4201055252 2.8995616981 -3.1073243697
C -1.3916357679 2.3990703933 -1.6760682395
C -2.4104615613 1.2891542789 -1.4108563321
O -2.5736030850 0.2539389855 -2.0077513320
N -3.1075627040 1.7169423285 -0.2900346536
C -2.7636277545 3.0282720454 0.0921069195
O -3.2043384870 3.6652017709 1.0001388738
O -1.8273826114 3.4731271852 -0.7908209742
N -3.9595624486 0.9280901202 0.4534130578
C -3.3530094693 -0.1398085108 1.1607071768
C -4.1357205927 -1.2477212280 1.4923000637
C -3.5905199408 -2.2799944773 2.2432870898
C -2.2649730196 -2.2249734690 2.6671118388
C -1.4922053934 -1.1178582733 2.3335234162
C -2.0257441401 -0.0736838052 1.5857826746
C -0.0363434682 1.8837033251 -1.2172104521
C 0.5205308627 0.7679520639 -1.8491371196
C 1.7204674556 0.2297137422 -1.4103218110
C 2.3680162601 0.8041353095 -0.3171955936
C 1.8344748990 1.9231220112 0.3117317632
C 0.6342309614 2.4603933407 -0.1389940532
O 3.5804127339 0.3457602095 0.1460752120
C 3.8281831450 -1.0163468397 0.1576083557
C 5.1264013489 -1.4183302519 -0.1358584206
C 5.4517741115 -2.7686498040 -0.0652471092
C 4.4882052004 -3.7093775693 0.2874196295
C 3.1928344053 -3.2901502990 0.5799860795
C 2.8538545333 -1.9426743819 0.5226894138
H -0.6995841618 3.7122783463 -3.2236755271
H -1.1522825207 2.0848996033 -3.7832291136
H -2.4199287116 3.2579522023 -3.3660578795
H -4.7645502744 0.6478133235 -0.0938544213
H -5.1695500852 -1.2988780048 1.1622215053
H -4.2072590306 -3.1373496207 2.4926706621
H -1.8423017666 -3.0343384505 3.2518996234
H -0.4596891510 -1.0543794251 2.6627724520
H -1.4069758399 0.7836279482 1.3434640331
H 0.0003948780 0.2967363290 -2.6761188696
H 2.1465813406 -0.6381214561 -1.9008618622
H 2.3624562360 2.3596307521 1.1522233901
H 0.2162696857 3.3268418540 0.3597291806
H 5.8615311474 -0.6700297945 -0.4105183816
H 6.4642341295 -3.0854768584 -0.2935754454
H 4.7446241543 -4.7619804175 0.3361471851
H 2.4366601430 -4.0151967753 0.8632814055
H 1.8467776568 -1.6125991792 0.7540212411
