49
CONF16
C -4.9420203734 1.7670836339 -1.2555858532
C -3.6607920019 1.4725491668 -2.0054938130
C -2.8997487875 0.2088767598 -1.7318196017
C -2.3928648165 1.5295381383 -1.1596992433
C -1.0765720563 1.9811144977 -1.6470451109
O -0.6053309380 1.7958078699 -2.7458188036
O -0.4102534352 2.6163414294 -0.6353682824
C 1.0076746611 2.8422567961 -0.8898415008
C 1.3804445344 4.0066405214 -0.0923620324
N 1.7035299544 4.9205720342 0.5346767058
C 1.7902433176 1.6017873284 -0.5220762268
C 1.9511169996 1.2599221072 0.8185686321
C 2.6008389314 0.0729803614 1.1499585846
C 3.0925481838 -0.7691683962 0.1508037316
C 2.9160957699 -0.4142900641 -1.1809327173
C 2.2664649945 0.7654572269 -1.5295669456
O 2.7650416419 -0.1649007019 2.4911966329
C 3.0786589985 -1.4479611705 2.9221854652
C 2.2244456697 -2.5165469927 2.6684536015
C 2.5414331767 -3.7679638706 3.1850651558
C 3.6908382876 -3.9451506400 3.9520921185
C 4.5283218992 -2.8625563915 4.2031831015
C 4.2278608067 -1.6058618888 3.6851638960
C -3.3580676071 -0.8647929012 -0.7964119111
C -2.2711489558 -1.8847763014 -0.4168430792
Br -2.9548841922 -3.1661550824 0.9077283271
Br -0.7731947344 -0.8906724816 0.4207563989
Br -1.5719372272 -2.8520445368 -1.9702930026
Br -4.9138804705 -1.8006431794 -1.6237468356
C -3.6545929502 1.9865959220 -3.4266152003
H -5.7941355423 1.3177584582 -1.7738124553
H -5.0997473893 2.8493146173 -1.2085142832
H -4.9305609735 1.3867017735 -0.2311536421
H -2.3182251093 -0.1520805300 -2.5764605973
H -2.5530957694 1.6912116284 -0.0993732061
H 1.1460550637 3.0758179977 -1.9513619894
H 1.5902966325 1.9063107476 1.6125395738
H 3.6056479607 -1.6861983927 0.4155505587
H 3.2942998988 -1.0702447585 -1.9579734902
H 2.1108254775 1.0259095826 -2.5702220430
H 1.3270352491 -2.3652493890 2.0778320117
H 1.8789518817 -4.6059472662 2.9939875031
H 3.9293641303 -4.9231043148 4.3561218364
H 5.4229405872 -2.9932964219 4.8032100051
H 4.8649301661 -0.7475018128 3.8675601758
H -3.7541804804 -0.4629260830 0.1379965051
H -4.4679736277 1.5118387070 -3.9852526479
H -3.8211549390 3.0689990955 -3.4378191423
H -2.7115433812 1.7783088615 -3.9331664571
