45
CONF11
C 7.5435426123 2.1948532997 -0.5424809848
C 6.9981176534 0.7842778846 -0.7584402742
C 5.5767927387 0.6114439398 -0.2231566265
C 5.0246319956 -0.7959652987 -0.4532400160
C 3.6472273108 -1.0434915721 0.1677020010
C 2.5337302415 -0.1687990628 -0.4108173649
C 1.1510655321 -0.5780592020 0.0915721303
C 0.0315629589 0.3186174009 -0.4612081873
C -1.3390633727 -0.1218778979 -0.0174600752
C -1.9931402311 -1.1287727071 -0.7396076041
N -3.2183244240 -1.5009547849 -0.2715555833
C -3.7921537756 -0.9371875376 0.8598613243
N -4.9917972129 -1.5141100337 1.0521596465
C -5.0775184010 -2.3931405825 0.0293393451
N -4.0414858222 -2.4435104454 -0.8118953863
N -3.1809584635 0.0038977296 1.5738653269
C -1.9730652332 0.3937857576 1.1338931624
C -1.3327494194 1.4912938301 1.9428863292
C -1.7384807995 2.8771293101 1.4180826898
N -1.5226196128 -1.7768684815 -1.8188461751
H 7.5615056851 2.4467671784 0.5238173271
H 6.9172012015 2.9375125559 -1.0492972949
H 8.5629371366 2.2952458429 -0.9286002935
H 7.6579580215 0.0542406233 -0.2708929068
H 7.0100390500 0.5435861025 -1.8299693619
H 4.9247401596 1.3543086927 -0.7012979072
H 5.5642490717 0.8351486855 0.8536171977
H 5.7357757897 -1.5243022857 -0.0406850597
H 4.9731993999 -0.9915348633 -1.5337838039
H 3.7032099541 -0.8867245051 1.2540653632
H 3.3765372439 -2.0978463104 0.0205742980
H 2.5545878840 -0.2334368964 -1.5084612508
H 2.7095750951 0.8846356012 -0.1575595366
H 0.9541733466 -1.6222141335 -0.1854193317
H 1.1263708840 -0.5392749044 1.1887791572
H 0.2075171660 1.3515947771 -0.1503247813
H 0.0859241056 0.3352670634 -1.5576274550
H -5.9356447291 -3.0377414184 -0.1211104868
H -0.2439081721 1.3928291578 1.9397037651
H -2.8254873135 2.9949072422 1.4572958804
H -1.4188330291 3.0179922242 0.3805837667
H -0.6900721826 -1.4482005318 -2.2775289887
H -2.1433511480 -2.3781490046 -2.3382899362
H -1.6702201159 1.3820743702 2.9773645242
H -1.2835805045 3.6639338630 2.0267876133
