39
CONF6
C 4.6592496385 -2.5399942898 2.4689326616
C 4.4581547420 -1.1367199917 1.9002219164
C 3.0136833662 -0.8893984746 1.4680792485
C 2.8268405945 0.5164097282 0.8992542810
N 1.4507726134 0.7798614419 0.4817109266
C 1.0030623782 0.4042591416 -0.7247840444
O 1.6548008368 -0.1305849905 -1.6074665323
N -0.3822158241 0.7658665368 -0.9451603020
C -0.9325416075 2.0495853804 -0.8263876637
C -0.4666394050 3.2228621033 -0.2462821772
C -1.2934972418 4.3407637955 -0.3457793169
C -2.5328712329 4.2834555439 -0.9989065236
C -2.9860911900 3.1073709778 -1.5874773358
C -2.1703550857 1.9805260540 -1.5026799725
N -2.3825482478 0.7025048314 -2.0004236533
C -1.3086340445 0.0295617331 -1.6665297054
N -1.1119525005 -1.2927419908 -2.0127612217
C -0.5541720038 -2.2410084319 -1.1801745656
O -0.1410295850 -2.0291692338 -0.0565887331
O -0.5381107663 -3.4307129867 -1.8059668094
C 0.0025128780 -4.5217350557 -1.0199104835
H 4.4028923592 -3.3018430606 1.7246506410
H 4.0210251990 -2.7000407360 3.3447220659
H 5.6977896764 -2.7016948020 2.7736911339
H 5.1229255538 -0.9869397799 1.0394767468
H 4.7459393075 -0.3882692754 2.6502704600
H 2.7199585682 -1.6237565331 0.7081385229
H 2.3399997892 -1.0259985723 2.3240047471
H 3.4742070225 0.6617515779 0.0289086101
H 3.0928586130 1.2705091122 1.6475897224
H 0.4930042825 3.2822163451 0.2538783242
H -0.9651429669 5.2770307127 0.0935396506
H -3.1471015192 5.1767782591 -1.0491499299
H -3.9402612974 3.0605953241 -2.1021965396
H 1.0424011850 -4.3152910366 -0.7569162317
H -0.0645303922 -5.3961022518 -1.6655039782
H -0.5920047409 -4.6646609133 -0.1147689558
H 0.7750438501 1.0292521645 1.1897397464
H -1.6346769218 -1.6187236106 -2.8146785111
