38
CONF7
C 0.8603041564 3.4727026036 -1.9104288493
N 0.6846061385 2.1458717641 -1.3210588429
C 1.7624468062 1.4791212628 -0.8117522445
C 1.6493177235 0.3086098794 -0.1182845644
C 0.3192659970 -0.2534453172 0.1636733830
O 0.1524860716 -1.2723299824 0.8406177650
C -0.7976325149 0.4786441979 -0.4534059845
C -0.5673974475 1.6409205282 -1.1325644643
C -2.1760266676 -0.0283595843 -0.3474300093
C -3.0452163545 0.0419566164 -1.4455112102
C -4.3584718692 -0.3978116314 -1.3488367185
C -4.8329619496 -0.9288157499 -0.1547074618
C -3.9703489846 -1.0172719084 0.9342372668
C -2.6526902291 -0.5784544315 0.8471869150
C -4.4526836271 -1.5587831444 2.2498775951
F -4.6059845163 -0.5684280582 3.1697975189
F -3.5820202183 -2.4467817596 2.7808530702
F -5.6492616589 -2.1819861160 2.1438780193
C 2.8718129321 -0.3733293826 0.3404734073
C 2.9467116379 -0.9533302334 1.6141469220
C 4.1245151239 -1.5526438297 2.0433754008
C 5.2413702468 -1.5969798696 1.2135142218
C 5.1733281217 -1.0380028287 -0.0590131516
C 3.9981879518 -0.4360572097 -0.4917804355
H 0.8336594473 4.2525352915 -1.1404684667
H 1.8200697649 3.5158769813 -2.4298438251
H 0.0642377081 3.6580233376 -2.6345755860
H 2.7253039080 1.9511449743 -0.9793504497
H -1.3786744682 2.2344947700 -1.5421943013
H -2.6734610985 0.4154212447 -2.3950721700
H -5.0122552677 -0.3436697373 -2.2129919409
H -5.8538524256 -1.2824501950 -0.0743281322
H -1.9911968279 -0.6650409091 1.6990050863
H 2.0785748318 -0.9309863620 2.2595091718
H 4.1682021309 -1.9927171605 3.0346224104
H 6.1555367011 -2.0738704854 1.5521201963
H 6.0311287134 -1.0851677172 -0.7224891800
H 3.9390687108 -0.0386101659 -1.5011304739
