50
CONF59
C 3.0726614592 -1.0792338884 3.2766626944
C 2.9100348401 -1.8347572565 1.9527486447
C 2.3240431115 -3.2272922688 2.2566711586
C 4.3013985497 -1.9942292313 1.3110833947
C 1.9807927948 -1.1067877917 0.9797565735
C 1.3460041743 0.0972985168 1.2923419025
C 0.4797645667 0.7266326591 0.3965562323
C 0.2419168159 0.1300573307 -0.8291928540
C 0.8705456895 -1.0541128194 -1.1896051277
C 1.7324264470 -1.6590492843 -0.2862824841
O -0.6289578008 0.6881557129 -1.7843466070
P -2.1311480315 1.1660792421 -1.4660483248
O -2.9010648882 1.2628965681 -2.7229216947
O -2.0603360447 2.5119342189 -0.5911878481
C -1.8646632562 3.7441673020 -1.2481148594
C -2.9762151415 4.5141525176 -1.5566038509
C -2.7789984104 5.7563300315 -2.1546507321
C -1.4898144613 6.2058603215 -2.4348920594
C -0.3901582829 5.4129415737 -2.1142329476
C -0.5705059423 4.1686220992 -1.5138662125
O -2.6773287864 0.2170175883 -0.2929001187
C -2.4922803718 -1.1756844570 -0.3018737366
C -2.1222223301 -1.7517885545 0.9056923980
C -1.9270543389 -3.1280309223 0.9564713215
C -2.0976197776 -3.9064871807 -0.1878138819
C -2.4817390521 -3.3059970372 -1.3838241947
C -2.6909527832 -1.9293625154 -1.4505064816
H 2.1159094636 -0.9657334137 3.7971264969
H 3.5065524404 -0.0855015157 3.1235207835
H 3.7456661050 -1.6425645927 3.9304558366
H 1.3298791695 -3.1367482312 2.7076673698
H 2.2341216620 -3.8326541678 1.3496612275
H 2.9754567493 -3.7604439479 2.9578203059
H 4.2552029076 -2.5733384579 0.3841151800
H 4.9716971384 -2.5161390366 2.0027473589
H 4.7350136974 -1.0146813455 1.0830453383
H 1.5108925988 0.5730509627 2.2515505569
H -0.0032476575 1.6589384274 0.6662399189
H 0.6671941741 -1.4982466957 -2.1583258791
H 2.2095341366 -2.5896182010 -0.5759309511
H -3.9701611411 4.1433968541 -1.3304305753
H -3.6378279593 6.3721133561 -2.4014698097
H -1.3425381511 7.1745609809 -2.9009133908
H 0.6153643959 5.7606394469 -2.3280448974
H 0.2742333204 3.5403266387 -1.2513644564
H -1.9776072189 -1.1240978402 1.7781920308
H -1.6331454626 -3.5904238695 1.8933103579
H -1.9366863018 -4.9785368359 -0.1449387540
H -2.6258919505 -3.9071921734 -2.2756900501
H -2.9981424791 -1.4564391137 -2.3774656203
