24
CONF52
C 2.8370618629 0.3380742594 0.4349917655
C 1.4802858466 -0.3410133464 0.2764762523
C 0.4329922244 0.6104172197 -0.3272667475
C -0.7645183395 -0.1169020279 -0.9546141295
C -1.6569409682 -0.8221688961 0.0758669515
C -2.6853769713 -1.6789443037 -0.6210525576
O -3.8699567857 -1.5570755595 -0.4060534888
O -2.2904960326 0.1543009403 0.8801111106
O -1.5510937169 0.8174295079 -1.6994099404
O 1.0779446674 1.3844071664 -1.3403204105
O 1.0192519936 -0.8355690984 1.5349094711
O 2.7263066133 1.5076952289 1.2521413138
H 3.5036057735 -0.3492270334 0.9657639303
H 3.2691981030 0.5699951845 -0.5446531267
H 1.6044385076 -1.2192877065 -0.3729502972
H 0.0597517920 1.2656085897 0.4783724669
H -0.3850570751 -0.8475050466 -1.6826318810
H -1.0239060737 -1.4865648817 0.6894627636
H -2.2927272468 -2.4377605318 -1.3302056625
H -3.2344029893 -0.0827292866 0.8865274527
H -2.1131527268 1.2630561612 -1.0457908395
H 0.3663832140 1.7649137258 -1.8761325221
H 1.1193059575 -0.1070137420 2.1641517891
H 2.3711025607 2.2058636674 0.6879997491
