45
CONF350
O -1.0544903234 0.2289358979 -2.8040868484
C -2.2596287802 -0.5238654053 -2.7189965182
C -2.7223164037 -0.7380147669 -1.2931413609
O -1.7388049811 -1.5647807327 -0.6039625090
C -1.4854715516 -1.0775690816 0.7000061461
C -1.4397039293 -2.2867842061 1.6315656184
O -1.1063451853 -1.9368636860 2.9637438789
O -0.2510561482 -0.3382797692 0.7633970753
C 0.8928990555 -0.9188792611 0.1666569425
O 1.2489541118 -0.2226953249 -1.0183375787
C 1.5869470700 1.1757431296 -0.8225958428
C 1.9459044822 1.7181456817 -2.1964038984
O 3.0720705497 1.0542413470 -2.7706080196
C 2.7363967062 1.3086050763 0.1826537165
O 3.0399097248 2.6811078788 0.4395028091
C 2.4090848410 0.5714059337 1.4759932486
O 3.5275388779 0.5347720415 2.3641291404
C 2.0546668771 -0.8697920914 1.1571191342
O 1.6739646861 -1.6049941465 2.3205341232
C -2.5845452675 -0.0298274944 0.9785357050
O -2.2679345945 0.9531101977 1.9400530493
C -2.8543763518 0.5146880988 -0.4303283087
O -4.0859108849 1.1987791215 -0.5883211139
H -0.3861935262 -0.1970715335 -2.2400811696
H -3.0319368742 0.0396944921 -3.2542942421
H -2.1512318980 -1.5036594757 -3.2081919042
H -3.6818783253 -1.2785817921 -1.3078417485
H -0.7379514342 -3.0275920070 1.2171322974
H -2.4357681657 -2.7406992610 1.6420112973
H -0.1732584087 -1.6597835200 2.9432334268
H 0.6975042148 -1.9480089835 -0.1493692820
H 0.7035747281 1.7163518814 -0.4459274199
H 2.2176012523 2.7720643857 -2.0925005591
H 1.0687793276 1.6488471187 -2.8532368120
H 2.8262535551 0.1288414306 -2.8978580868
H 3.6456523761 0.8789012727 -0.2529171686
H 2.2497464651 3.1000662601 0.8099088664
H 1.5486416268 1.0566447721 1.9663372337
H 3.7506974301 1.4482599913 2.5866148217
H 2.9203290500 -1.3512045750 0.6773443360
H 2.3674433313 -1.4792951023 2.9831095640
H -3.4795836734 -0.5512180702 1.3421578351
H -1.3855842500 1.2875724685 1.7245789826
H -2.0692431240 1.2335490102 -0.6924592285
H -4.8013452530 0.5991328831 -0.3348594489
