33
CONF6
C -1.5205045497 1.0389335376 2.5209073865
C -1.9663289712 0.3007701030 1.2965079891
C -3.1479004388 -0.4359623349 1.2583070670
C -3.4754091553 -1.0807799283 0.0654639492
C -4.7228278169 -1.8962692418 -0.0842384749
N -2.6899770869 -0.9879818206 -1.0131942613
C -1.5787826142 -0.2541795469 -0.8655453741
N -0.7586003016 -0.2065844814 -1.9824554826
S 0.3788348658 1.0437548769 -2.3183882323
O 0.7317568855 0.7530401453 -3.7135917732
O -0.1681100551 2.3390298784 -1.9167420366
C 1.7649449618 0.6618076408 -1.2772260153
C 2.6791844149 -0.3038691580 -1.6920948786
C 3.7748503788 -0.5905121358 -0.8980125133
C 3.9717873699 0.0883700854 0.3168884268
N 5.0981466994 -0.1555981290 1.0804564955
C 3.0405052671 1.0635976552 0.7112656520
C 1.9417294909 1.3489614109 -0.0794172542
N -1.1644940024 0.3872516118 0.2287966003
H -2.1823273691 0.8551581836 3.3694291519
H -1.4977191099 2.1138104380 2.3131652032
H -0.5009122017 0.7403709785 2.7829751497
H -3.7920557122 -0.5074138193 2.1270610684
H -5.3796074305 -1.4336693904 -0.8280108737
H -5.2636046843 -1.9841438016 0.8600999839
H -4.4737319130 -2.8949392011 -0.4542739476
H -1.1378520398 -0.6199951116 -2.8260776522
H 2.5351583266 -0.8153847852 -2.6373902721
H 4.4968668952 -1.3345955328 -1.2213742115
H 5.5547945741 -1.0413789204 0.9348744330
H 5.0476668682 0.1114435020 2.0502177359
H 3.1902836967 1.6039961115 1.6415706758
H 1.2142343500 2.0929612966 0.2207680795
