47
CONF4
C 0.6394612278 -1.5441424115 -1.2803769531
C -0.5873563177 -1.6719537867 -0.4242656386
C -1.1408478914 -2.9384759685 -0.2031476931
C -2.2763391476 -3.1023959841 0.5739220658
C -2.8992693156 -1.9941905482 1.1414213284
C -2.3858085206 -0.7154825644 0.9421497984
C -1.2177043204 -0.5706462124 0.1696218992
N -0.6837676116 0.7499139012 0.0001854891
C -1.1610027929 1.6362778714 -1.0734987850
C -1.9272372353 0.8793524783 -2.1557349280
C 0.0343007446 2.3344011105 -1.7230134171
O 1.0887418798 1.8100541443 -1.9941260108
O -0.2958008574 3.5960884415 -2.0590373074
C 0.7549275884 4.3375952300 -2.7127398529
C 0.0784167881 1.3618348323 0.9638970567
O 0.3801398098 2.5480186981 0.8657271979
C 0.5672492827 0.5045674248 2.1208853153
C 1.7214154090 -0.3854744625 1.7154080160
C 1.7373084528 -1.7345272915 2.0700670267
C 2.8056178719 -2.5494300379 1.7074375047
C 3.8693744520 -2.0228284530 0.9802604743
C 3.8566293719 -0.6783009499 0.6178687700
C 2.7903470086 0.1360116527 0.9824298205
C -3.0726683207 0.4879478316 1.5256165588
H 0.4516353753 -1.9783249903 -2.2690928998
H 1.4698702353 -2.1013791208 -0.8330497374
H 0.9552108128 -0.5087996555 -1.4082491185
H -0.6593800268 -3.8030285154 -0.6517462731
H -2.6852273716 -4.0949069390 0.7357444949
H -3.7962388695 -2.1208983879 1.7404637611
H -1.7957320699 2.4210733220 -0.6422995208
H -1.2887237997 0.1322945893 -2.6339142253
H -2.8030059247 0.3748308366 -1.7397847881
H -2.2635971333 1.5920383996 -2.9133207230
H 1.6195353247 4.4192836152 -2.0490903742
H 1.0553618464 3.8409800586 -3.6391695516
H 0.3327921024 5.3208483701 -2.9191014470
H 0.8861657805 1.2079551009 2.8959099625
H -0.2421506026 -0.1116124169 2.5227249528
H 0.9000388912 -2.1526113958 2.6223412560
H 2.8037985685 -3.5977081688 1.9897244475
H 4.7019086158 -2.6575782068 0.6941147175
H 4.6775136125 -0.2621071597 0.0426029818
H 2.7742162135 1.1803438569 0.6841869617
H -2.3876103669 1.1150183423 2.1054590389
H -3.8942640724 0.1842590742 2.1777548546
H -3.4882450631 1.1258140429 0.7368337798
