50
CONF118
C 0.6492869750 0.1175920075 -1.9577555888
C -0.8455673051 -0.0838294611 -1.8885969198
C -1.4614757380 -1.4250683089 -2.2019716463
C -1.4577771136 -0.9095488868 -0.7539093368
C -0.5960531769 -1.5183347932 0.2650011118
O 0.3629344875 -2.2403938633 0.1041909843
O -1.0165800654 -1.1153441483 1.5096695779
C -0.1486315712 -1.5068615811 2.5886390517
C -0.9430428314 -1.3532974355 3.8090690757
N -1.5301776327 -1.2313884043 4.7956936484
C 1.1110306714 -0.6557874459 2.6658064941
C 1.1521962094 0.5851828006 2.0371086055
C 2.3142595436 1.3481325804 2.1354268457
C 3.4135115743 0.8876402792 2.8597463112
C 3.3492769701 -0.3534581549 3.4798745176
C 2.2006988354 -1.1354098264 3.3872718683
O 2.4801732883 2.5555760945 1.4973614772
C 1.3727537049 3.2406875758 1.0118340749
C 1.3960187122 3.6214749223 -0.3242710250
C 0.3417918611 4.3776994921 -0.8314943212
C -0.7225392492 4.7402406095 -0.0097756865
C -0.7256836343 4.3549087566 1.3303092404
C 0.3256811783 3.6075279343 1.8527981546
C -0.6334582880 -2.5656572445 -2.6139562358
C -1.0966145174 -3.7067382179 -3.1321988127
C -2.5622125171 -4.0290709040 -3.3001828746
F -2.7957416928 -5.3383266804 -3.4979373478
F -3.1033564432 -3.3658944389 -4.3579210410
F -3.2728426734 -3.6595889112 -2.2068500661
Cl 0.0016922951 -4.9327555760 -3.7262239676
C -1.6423020936 1.1382242139 -2.2866443743
H 0.9194650797 1.0044652594 -1.3751696543
H 1.2215439470 -0.7248792204 -1.5685513567
H 0.9461675998 0.2927357782 -2.9973989538
H -2.4547173227 -1.3814584150 -2.6367238332
H -2.4117844544 -0.5539683020 -0.3799147917
H 0.1256286680 -2.5645186361 2.4863116820
H 0.3012496751 0.9469155333 1.4725532495
H 4.3058381124 1.5015936047 2.9180261282
H 4.2062862037 -0.7169041097 4.0374155221
H 2.1543032385 -2.1077193829 3.8678387353
H 2.2332888482 3.3279730445 -0.9487981931
H 0.3533456647 4.6777708105 -1.8746105795
H -1.5446311422 5.3249636895 -0.4091968462
H -1.5466545242 4.6443392968 1.9786363105
H 0.3367132651 3.3112740018 2.8967494143
H 0.4428627692 -2.4643335155 -2.5366399168
H -2.7183750378 0.9500234304 -2.2432986099
H -1.4061434415 1.9740366065 -1.6187744025
H -1.3816370335 1.4345579253 -3.3085656994
