65
CONF49
C 6.9002620079 0.6091836995 1.6672718680
O 6.6082982131 -0.4011914886 0.7088261781
C 5.4951380180 -1.1639012723 0.9197246520
C 5.2436060510 -2.1502153543 -0.0378357421
C 4.1358125201 -2.9734364947 0.0893060558
C 3.2418111644 -2.8405995113 1.1571220356
C 3.5179562573 -1.8598595784 2.1079799397
C 4.6281807788 -1.0226741161 2.0046090045
C 2.0347612721 -3.7363262182 1.3095584364
C 0.6754278122 -3.0127763025 1.3673880139
N 0.0036432965 -2.8899792023 0.0723028841
C 0.7906324125 -2.1264569308 -0.8953200206
C 0.0760654549 -2.0532376515 -2.2453195037
C -1.3217435258 -1.4464827601 -2.1236817846
C -2.0984199090 -2.2033649787 -1.0378361595
C -1.3123233002 -2.2694210158 0.2642202701
N -1.1812380488 -0.0100413909 -1.8417495582
C -2.2895892765 0.7889777827 -1.8083969275
N -3.4944629621 0.4709587334 -2.2316396132
C -4.2438635206 1.6237703188 -2.0547280421
C -5.5885364007 1.8625855219 -2.3238107818
C -6.1054910161 3.1231510537 -2.0327431274
C -5.3065364166 4.1317567122 -1.4829894769
C -3.9563345084 3.9133872037 -1.2040730316
C -3.4509277904 2.6572013591 -1.5005513131
N -2.1878122729 2.0972121553 -1.3501316320
C -0.9705552039 2.7507042857 -0.9111507024
C -0.3752467343 2.1110099333 0.3256820357
C -1.1889451108 1.7894224545 1.4147793013
C -0.6534378822 1.1906478160 2.5482383746
C 0.7050615667 0.9140873999 2.5697060108
C 1.5415892485 1.2079575428 1.5083421316
C 0.9854916663 1.8100783985 0.3825784751
F 1.2279133505 0.3178412603 3.6662824336
H 7.8111921645 1.0976566922 1.3187167938
H 7.0759311407 0.1793805114 2.6622618686
H 6.0911334329 1.3496889325 1.7276225470
H 5.9314696177 -2.2572102522 -0.8697447765
H 3.9614123927 -3.7407383690 -0.6610005166
H 2.8574295858 -1.7387979500 2.9621927332
H 4.8067493355 -0.2843071407 2.7774458090
H 2.0057796241 -4.4785865911 0.5042412363
H 2.1468171772 -4.3004724255 2.2435437902
H 0.8133947336 -2.0184257458 1.8416255485
H -0.0010578451 -3.5803424591 2.0177213263
H 1.7596975778 -2.6128227323 -1.0337765528
H 1.0229734622 -1.1073733894 -0.5093305789
H 0.6802513804 -1.4775758805 -2.9552799267
H -0.0256043084 -3.0714170701 -2.6365704886
H -1.8575844631 -1.5279983695 -3.0749861566
H -3.0667334798 -1.7218830382 -0.8738681032
H -2.2860614609 -3.2222787565 -1.3971943007
H -1.2108088711 -1.2479581814 0.6941013976
H -1.8689087277 -2.8621448446 1.0000370151
H -0.4854020158 0.2145116879 -1.1426250322
H -7.1512575991 3.3293246803 -2.2362885405
H -5.7409597683 5.1023975012 -1.2686002769
H -3.3440631364 4.7011219366 -0.7758273766
H -0.2302071033 2.7421080879 -1.7229329463
H -1.2170525933 3.7993351196 -0.7131196291
H -1.2703559595 0.9308556726 3.4010099663
H 2.5910332361 0.9390091021 1.5526987340
H 1.6239516042 2.0348782932 -0.4677716168
H -2.2542403712 1.9965363680 1.3664146610
H -6.2077328497 1.0800661739 -2.7491146841
