43
CONF9
C 5.8887662805 -1.7592806103 -0.1546266909
O 6.0989750669 -0.4688979503 -0.7429513557
C 5.0252120663 0.3664894282 -0.8236156398
C 3.7504903106 0.0373392320 -0.3703265704
C 2.7738547349 1.0204873661 -0.5403736988
C 3.0334016150 2.2820369868 -1.1274778371
C 4.3268185874 2.5836896392 -1.5715965524
C 5.3059960504 1.6232186600 -1.4159620168
N 1.8778084455 3.0446454774 -1.1512584276
C 0.9693385903 2.2663559072 -0.5981588240
N 1.4396427846 1.0392305286 -0.2147951640
S -0.7554756512 2.7922927735 -0.5161038963
O -1.5136558222 2.0428255911 -1.6146731621
C -1.2159091974 1.9545292807 1.1283908329
C -1.6985733631 0.5581240498 0.9125921176
N -0.7516781527 -0.3916434885 0.8542427451
C -1.1162499515 -1.6602539825 0.6560126839
C -2.4360128960 -2.0658187430 0.4823217002
C -2.8013340923 -3.5035600971 0.2772894659
C -3.4074679964 -1.0590569496 0.5137457986
O -4.7227684614 -1.4200530792 0.3554546577
C -5.2035032097 -1.2445560058 -0.9976127823
C -3.0647221519 0.2795564565 0.7454148203
C -4.1164609540 1.3472217654 0.8383922766
H 5.5564591943 -1.6656904861 0.8860127594
H 5.1528595827 -2.3356972850 -0.7276224250
H 6.8560666288 -2.2608967511 -0.1882085474
H 3.5147802218 -0.9151919438 0.0861137911
H 4.5525852175 3.5429690834 -2.0257927562
H 6.3222966404 1.8103926474 -1.7466453931
H 0.8592705920 0.3199665956 0.2513872010
H -0.3253462643 1.9985445842 1.7597045230
H -1.9863272767 2.6066244652 1.5400486690
H -0.3152486603 -2.3973128252 0.6254845185
H -3.3121755067 -3.6514865033 -0.6793338297
H -3.4848591644 -3.8448176309 1.0612246740
H -1.9077772193 -4.1313440400 0.2941313296
H -4.6265866872 -1.8668191827 -1.6909536031
H -6.2474607088 -1.5604664209 -0.9941088433
H -5.1325395567 -0.1944051252 -1.3025326279
H -4.0091236393 2.0817617431 0.0331756871
H -5.1146640269 0.9135773776 0.7807652683
H -4.0387032906 1.8853700648 1.7885524110
