29
CONF128
C -2.5682200417 0.8796769392 -0.7535047322
N -1.8025844709 -0.3451941047 -0.4876296135
C -1.7688045686 -1.3908390438 -1.5255864624
C -2.8576249463 -2.4291084696 -1.3369683269
O -4.1223151353 -1.7874315910 -1.5169152165
S -0.7221432959 -0.4134719053 0.7548387281
O -1.1573527203 0.4854156386 1.8208058299
O -0.3638555585 -1.8151491472 0.9622546478
C 0.8520929361 0.4163101551 0.0337927364
C 1.9077247145 0.7854820095 1.1183610385
C 3.3371420092 1.0495124332 0.5366897089
C 4.2960443728 1.8102179893 1.5088520463
F 4.2968524784 1.2274215408 2.7153579141
F 5.5394923521 1.7697039203 1.0083327021
F 3.9323701495 3.0903127533 1.6386537376
F 3.2304767142 1.7912281869 -0.5928402502
F 3.9132245671 -0.1334378362 0.2346566062
F 1.9920862981 -0.2335712758 2.0018464572
F 1.4906885732 1.8984527502 1.7616101416
F 0.4579462113 1.5338296162 -0.6163420032
F 1.3923762834 -0.4381579759 -0.8659155889
H -3.6018235689 0.5961963817 -0.9642701860
H -2.5470501401 1.5213044822 0.1281004952
H -2.1516517894 1.4230484619 -1.6103433501
H -0.8002352605 -1.8978158364 -1.5161781473
H -1.8844297087 -0.8982604219 -2.4992951898
H -2.7080470890 -3.2249778740 -2.0844766253
H -2.7665603367 -2.8665112023 -0.3332825701
H -4.8158199288 -2.4041865742 -1.2623047194
