46
CONF58
C 0.1428975092 1.3571880605 -2.9226951079
C -0.0774059712 1.8158420536 -1.4836516167
C -0.9457062484 3.0724521669 -1.4095063288
C -1.2164754209 3.5355209422 0.0049475553
O -2.0056529473 2.4954502453 0.6512681688
C -2.1919539291 2.6325240361 1.9683000926
O -1.8252160506 3.5732475817 2.6351682938
C -2.9860451973 1.4624939816 2.5535459404
C -4.4728626682 1.7804985176 2.5079537903
O -2.8016158396 0.2457101403 1.8345056453
C -1.5367909451 -0.2715218885 1.7656469272
C -1.3826676912 -1.3681840918 0.9143788177
C -0.1461516675 -1.9781512916 0.7733992409
C 0.9438114043 -1.4771040952 1.4775703975
C 0.8063522605 -0.3907900319 2.3234959424
C -0.4377134074 0.2161869523 2.4758020308
O 2.1991440935 -2.0893771619 1.4221129073
C 2.6149515715 -2.5964122978 0.2276048217
C 2.6245579258 -1.8328138105 -0.9463437344
C 3.0979067702 -2.3375828705 -2.1380932111
C 3.6035420882 -3.6453652853 -2.1670561142
C 3.6252908281 -4.4154165609 -0.9973417265
C 3.1292268225 -3.8902923849 0.1856091192
C 4.1028954319 -4.1811381787 -3.3866713119
N 4.5067442034 -4.6195015094 -4.3797640490
F 2.1769076389 -0.5662980872 -0.9020263989
H 0.6429671745 2.1320771684 -3.5142040850
H 0.7597491903 0.4552368097 -2.9595123682
H -0.8110945487 1.1304522728 -3.4109970862
H -0.5479059404 1.0126475823 -0.9050904066
H 0.8889485017 2.0159381650 -1.0030886243
H -0.4525372345 3.8979452823 -1.9398359750
H -1.9021807584 2.8991190977 -1.9190921370
H -0.2928407907 3.6720520529 0.5784407259
H -1.7848150312 4.4710344787 0.0387507099
H -2.6573848249 1.3500059771 3.5956663981
H -4.8000939304 1.8949277197 1.4713516263
H -5.0368052020 0.9669622144 2.9702280345
H -4.6689255566 2.7066567581 3.0533701034
H -2.2478612208 -1.7333046411 0.3722877863
H -0.0304280833 -2.8374026153 0.1207192191
H 1.6720892424 -0.0191349149 2.8600202999
H -0.5219999875 1.0673209423 3.1408775031
H 3.0925583151 -1.7159485904 -3.0256317232
H 4.0223539017 -5.4230037466 -1.0267622931
H 3.1282365373 -4.4707472244 1.1013648978
