63
CONF133
C 2.1725347968 1.4316777340 2.0033807151
C 1.1057120983 0.4716801361 2.5201274021
N 0.4120700312 -0.1983805992 1.4139016770
C 1.3679991502 -0.9865868026 0.6280130666
C 2.4524042333 -0.0941292057 0.0309138601
C 3.1751721088 0.6597311797 1.1462932437
N 4.2487265982 1.5137632471 0.6314165168
C 5.6068921892 1.3437862919 0.8787079890
C 6.3017984677 0.4135351354 1.6384326742
C 7.6952664346 0.5238143055 1.6796794477
C 8.3672703967 1.5304112735 0.9834063138
C 7.6694332816 2.4679790887 0.2165813756
C 6.2893773810 2.3573869567 0.1763123205
N 5.3237283322 3.1023540527 -0.4738406253
C 4.0558330276 2.6027048029 -0.2157441566
O 2.9917570860 3.0371840056 -0.6499097961
C -0.6729548581 -1.0348780450 1.9434656244
C -1.5704800997 -1.6507578517 0.8710558945
C -2.1183021855 -0.6263879566 -0.1192719955
C -3.1184993305 -1.2332139743 -1.1190448707
C -4.3743771180 -1.8060341542 -0.4835466852
C -4.9510335990 -1.2660479070 0.6690966852
C -6.1318094926 -1.7835578647 1.1978710306
C -6.7256671926 -2.8536625068 0.5533692147
C -6.1892439553 -3.4265634152 -0.5870956491
C -5.0094172253 -2.8916467248 -1.0953937912
F -7.8777691513 -3.3668113510 1.0628163407
C -3.4654312624 -0.2190302360 -2.1978769011
C -4.2976380869 0.8712712422 -1.9260645803
C -4.5754092492 1.8264497156 -2.8991454110
C -4.0074482270 1.6692695451 -4.1525020462
C -3.1818032485 0.6057135698 -4.4684864413
C -2.9161534883 -0.3365423743 -3.4765333401
F -4.2739186012 2.5974115768 -5.1109262470
H 2.6869276939 1.9023208507 2.8486452031
H 1.7054799459 2.2182487101 1.4030152784
H 0.3665111797 1.0253648176 3.1102014201
H 1.5783846461 -0.2697965300 3.1987610395
H 1.8359386214 -1.7756860967 1.2542660698
H 0.8367957415 -1.4910575203 -0.1851058682
H 1.9982258401 0.6225662213 -0.6610712915
H 3.1672265876 -0.7072032755 -0.5292958770
H 3.6684083726 -0.0783353888 1.7901332666
H 5.7932427570 -0.3736696797 2.1834698224
H 8.2620990092 -0.1914862432 2.2665184183
H 9.4494264413 1.5886457580 1.0359861333
H 8.1850917892 3.2521950186 -0.3274530485
H 5.4801725106 3.9057905658 -1.0612502354
H -1.2902195797 -0.3924877037 2.5856418203
H -0.2721155358 -1.8439338290 2.5876607553
H -1.0419020231 -2.4403007330 0.3221956668
H -2.3984010006 -2.1483722424 1.3903126102
H -2.5809176056 0.2122716911 0.4174938852
H -1.2932612408 -0.1929320116 -0.6946393982
H -2.6092967503 -2.0660496916 -1.6206882996
H -4.4787417936 -0.4323761756 1.1784340907
H -6.5811414838 -1.3688428829 2.0938284304
H -6.6822119032 -4.2697125259 -1.0589119949
H -4.5741635453 -3.3279450745 -1.9906265473
H -4.7431547059 0.9799790844 -0.9417688656
H -5.2198915106 2.6748171702 -2.6952900120
H -2.7598252049 0.5183210201 -5.4639070691
H -2.2673031184 -1.1771886576 -3.7060133539
