37
CONF18
C -4.4381099090 2.7293401416 1.2191200189
N -3.4601810127 1.7482069530 0.7912925192
C -2.3420160384 1.4737917742 1.5081591080
O -2.0551717948 2.0101892102 2.5721716908
C -1.4277530856 0.4257561938 0.9049321037
N -1.8297335344 -0.1055700925 -0.1960808005
O -1.0062486125 -1.1095749163 -0.6542571296
C -1.4190545870 -1.5100747246 -1.9674357006
C -0.1877065917 0.0879412923 1.6279906566
C -0.2301157875 -0.2822073346 2.9768170772
C 0.9304606016 -0.6158449042 3.6597599776
C 2.1612523058 -0.5509814512 3.0102080339
C 2.2298592948 -0.1544206198 1.6813134863
C 1.0588720170 0.1560768571 0.9970148824
O 1.1052504501 0.6679526938 -0.2835212497
C 1.7595514994 -0.0224471147 -1.2791024213
C 2.0472012679 -1.3846620389 -1.2121857566
C 2.6645807788 -1.9985014279 -2.2976507348
C 2.9878156462 -1.2736025893 -3.4411758205
C 2.6868355520 0.0853440138 -3.4944761778
C 2.0763527049 0.7160439453 -2.4175624534
H -5.4044659580 2.2592796581 1.4384661485
H -4.0643052714 3.2050246240 2.1275775883
H -4.5863786608 3.4958316882 0.4500000579
H -3.5959133105 1.2316641379 -0.0640630337
H -1.2849221197 -0.6874781664 -2.6781061449
H -2.4634533960 -1.8398089829 -1.9603299649
H -0.7586039301 -2.3369972037 -2.2339317484
H -1.1888802743 -0.3066964866 3.4806490060
H 0.8776605075 -0.9111550647 4.7019156180
H 3.0746850447 -0.7911164204 3.5446540438
H 3.1815224918 -0.0711194209 1.1673231159
H 1.7766417383 -1.9551328778 -0.3315951938
H 2.8872705267 -3.0598646478 -2.2462733390
H 3.4690774319 -1.7618977970 -4.2814221592
H 2.9333103048 0.6635958345 -4.3793191808
H 1.8348134137 1.7731147669 -2.4408761341
