56
CONF5
C 1.8017884525 -4.6351803534 -0.2008614608
N 1.2763442824 -3.2890011388 0.0310992634
C 1.5224897670 -2.6719220339 1.3346149948
C 1.0218939986 -3.5028885040 2.5213912007
C 0.8778803871 -2.6340844283 3.7780136935
O -0.2130462974 -1.7253609522 3.6918550482
O 1.8773792205 -4.6163408620 2.8080859219
C 0.6495414658 -2.6607054460 -0.9836955718
O 0.3881089747 -3.1743981321 -2.0745919802
C 0.2850647562 -1.2060889946 -0.7948069869
C -0.9997798426 -0.8221220870 -0.4155890197
C -1.3894245245 0.5210197825 -0.3930078252
C -0.4493561380 1.4934657305 -0.7552087607
C 0.8641033454 1.1495456634 -1.0757192960
C 1.1990664561 -0.2032205616 -1.1182843041
I 3.1726344509 -0.7572690314 -1.6766319540
C 1.8883596088 2.2213726310 -1.3874223880
O 1.9721541996 2.6935454834 -2.5197652333
N 2.6558406605 2.6009327117 -0.3459557911
C 2.6283225087 2.0173608832 0.9932293169
C 1.6958612338 2.7312469006 1.9746573837
C 1.2570577627 1.7725700944 3.0842674500
O 0.4906519498 0.6949831807 2.5328289346
O 2.2752912774 3.9241586189 2.5078664090
I -1.0619850442 3.5176778524 -0.8641148242
N -2.6920868455 0.8839644396 0.0065842329
C -2.9566570377 1.3878911589 1.2345203384
O -2.0988499131 1.6096973250 2.0926255250
C -4.4090002820 1.6937034013 1.5172998639
O -5.2232914655 1.3247240739 0.4227597269
C -6.6046847337 1.6042988120 0.6649251535
I -2.3907528787 -2.3027944273 0.1684794027
H 1.1629884740 -5.3933877447 0.2627784998
H 1.8516827959 -4.8129762421 -1.2753343994
H 2.8003483024 -4.7054202605 0.2381591175
H 2.6027790128 -2.4952133571 1.4589073466
H 1.0236175305 -1.6990037838 1.3561964405
H 0.0420814166 -3.9318929415 2.2797483797
H 1.8265336685 -2.1070579936 3.9719233521
H 0.6901282503 -3.3085062183 4.6210950499
H 0.1060222254 -0.8757812628 3.3276096060
H 2.7572886605 -4.2701677499 3.0107113676
H 3.3228910294 3.3371991413 -0.5372623090
H 2.3201586312 0.9717491734 0.9209814566
H 3.6501745504 2.0278797730 1.3906561245
H 0.7973660648 3.0635827803 1.4415681783
H 2.1312528918 1.3283544892 3.5768286386
H 0.6805538965 2.3294412463 3.8341618558
H -0.3919018016 1.0418370714 2.2786492954
H -4.4803377695 2.7728145363 1.7319175806
H -4.6875953054 1.1500620441 2.4340742650
H -7.1522975310 1.2887231992 -0.2245423043
H -6.7607675230 2.6786363376 0.8316492591
H -6.9677131115 1.0457209902 1.5382225370
H -3.4819973078 0.6675168781 -0.5914134592
H 3.0869545477 3.6820066176 2.9743763811
