37
CONF10
C 0.3012122500 -0.5104905842 -3.0124082877
Si 0.0281540621 -0.3986505414 -1.1600238919
C -0.8445818218 -2.0159680191 -0.6216475761
N -1.2524820118 -1.9836327505 0.7787259123
C -0.4857050347 -1.9944714104 1.8935429292
N -1.2412174648 -1.8473174098 2.9741079683
C -2.4895131538 -1.7410137657 2.4462197671
N -2.5504828450 -1.8144781391 1.1201119102
C 1.6695325552 -0.3197361821 -0.2488414164
C 2.5597666528 -1.4035399677 -0.3116807526
C 3.7825973852 -1.3856098371 0.3494081087
C 4.1113291023 -0.2571887144 1.0844642539
F 5.2929985697 -0.2300797280 1.7354381270
C 3.2730456721 0.8407052134 1.1745654602
C 2.0547649493 0.7981858408 0.5030360362
C -1.0461120785 1.0605790990 -0.6996499816
C -1.5690728348 1.9150033871 -1.6803950987
C -2.3872162766 2.9911884803 -1.3506830475
C -2.6821893716 3.2028260114 -0.0148484792
F -3.4734562206 4.2447667502 0.3181828401
C -2.1932863522 2.3882049111 0.9937580130
C -1.3758343218 1.3215327664 0.6410743430
H -0.6419292673 -0.6242427132 -3.5572943930
H 0.9329451035 -1.3721704409 -3.2534828096
H 0.8112216798 0.3822979878 -3.3883422458
H -1.7547145208 -2.1619295236 -1.2110420717
H -0.2027686332 -2.8901380743 -0.7896857177
H 0.5899828261 -2.1091670744 1.8662694550
H -3.3809693076 -1.6105368396 3.0454030971
H 2.3024308353 -2.2894694777 -0.8883034524
H 4.4730417827 -2.2204734247 0.3048041053
H 3.5737389093 1.7018937167 1.7607450650
H 1.3914459844 1.6554751312 0.5704961705
H -1.3381839025 1.7461475707 -2.7282817556
H -2.7925657480 3.6559840985 -2.1051542038
H -2.4537826369 2.5899636187 2.0266343911
H -0.9921433037 0.6855492195 1.4347770484
