43
CONF13
C 0.0909772201 2.9114357530 2.1849142312
C -0.2746954319 2.0113359708 1.0052197460
C 0.2491931623 2.5805905457 -0.3112100624
C 0.2614934652 0.5856988629 1.2720597847
C -0.1331587596 -0.4217024704 0.2281274649
C 0.8161992904 -1.0258516884 -0.6181914187
C 0.3700356167 -1.9576041797 -1.5628231539
N -0.9002144045 -2.3200807849 -1.6875254016
C -1.8041244976 -1.7520893855 -0.8958044907
C -1.4779984616 -0.7922855726 0.0648849090
C -2.5297152413 -0.2279416516 0.9740331679
O -2.5219201999 -0.3528344271 2.1759610757
O -3.4658146874 0.4288070028 0.2724117747
C -4.5777154659 0.9216890696 1.0555063636
C -3.2028516629 -2.2897136312 -1.1178529590
F -3.9227161901 -1.4536938642 -1.9295300208
F -3.8819633099 -2.3923548494 0.0720044900
C 1.2988210464 -2.7030262626 -2.5173204356
F 2.4387418420 -2.0263541177 -2.7699218881
F 1.6454397204 -3.9025855747 -1.9941759945
F 0.7010040040 -2.9318340509 -3.6968101748
C 2.2554455298 -0.7106669756 -0.4455811015
N 2.8134919671 0.3403079203 -0.8822646524
C 4.2081402263 0.4338967624 -0.4519121188
C 4.7353800970 -0.9593329651 -0.0584282804
S 3.2421958830 -1.8744014556 0.5065134731
H -0.2956732236 3.9242178368 2.0349383753
H -0.3177334698 2.5245568179 3.1238898558
H 1.1799156658 2.9826518907 2.2911979596
H -1.3699950996 1.9619337779 0.9458161277
H -0.1684343190 3.5765046886 -0.4895982469
H -0.0141594164 1.9452842753 -1.1625650260
H 1.3406917097 2.6600732456 -0.2932206589
H -0.1233136736 0.2411686860 2.2375820135
H 1.3510064636 0.6321045717 1.3466366797
H -5.2447424231 1.3976595197 0.3382204373
H -5.0744124749 0.0883146972 1.5579414717
H -4.2261101070 1.6404608512 1.8003636481
H -3.1646472436 -3.2783163999 -1.5877701612
H 4.8162247473 0.8701064289 -1.2509267922
H 4.2454704488 1.1229833935 0.4054861581
H 5.4735639196 -0.9173788766 0.7451451723
H 5.1586777639 -1.4917339032 -0.9154210348
