60
CONF989
C 7.2232225656 2.2710851651 -3.1583701179
C 6.7780796403 2.7382625059 -1.7751385085
N 5.8823920290 1.7795414585 -1.1206462089
C 6.5113403774 0.7201646888 -0.3256330277
C 6.6976763075 1.1024194716 1.1423582127
C 4.5380944912 1.9081345507 -1.3196880695
O 4.0553737611 2.7575547581 -2.0804647838
N 3.7391303503 1.0134353501 -0.6119574483
C 2.3337658658 0.9949837776 -0.6551611063
C 1.6089423373 1.2300884413 -1.8182239684
C 0.2104085293 1.1435892598 -1.8434173334
C -0.4832932891 0.8213200039 -0.6543493747
C 0.2490435895 0.5682515846 0.5109511149
C 1.6326245237 0.6576968794 0.5082022020
O -1.8411736125 0.8376225278 -0.7008993351
C -2.5980216962 0.3570346096 0.4264864722
C -2.5868214293 -1.1664104398 0.5171997766
C -3.3506219995 -1.6516930753 1.7565124592
N -4.7877828420 -1.4212466625 1.5554203181
C -5.7181375128 -2.3527178463 2.2477844653
C -7.1234990945 -1.7750710485 2.0565323501
C -5.4126591343 -2.4713381375 3.7490402080
C -5.6483371583 -3.7307253419 1.5827880639
O -3.1574200974 -1.7457340424 -0.6587810974
C -0.4380691709 1.3911895475 -3.1659067150
O 0.1718691220 2.0196405759 -4.0288538566
C -1.8034139941 0.8376027444 -3.4725671791
H 7.9126876323 2.9990240163 -3.5977264166
H 6.3607726821 2.1653777694 -3.8227942136
H 7.7382223042 1.3068207080 -3.0999785202
H 6.2657737130 3.7006802599 -1.8459007719
H 7.6466126665 2.8720263175 -1.1207847766
H 5.9364183542 -0.2070558588 -0.4227882743
H 7.4868854944 0.5159095258 -0.7795990116
H 5.7383139283 1.2891542672 1.6359215924
H 7.3055563939 2.0081355821 1.2289436632
H 7.2060711215 0.2947131292 1.6777538926
H 4.1379524942 0.5744201126 0.2037017491
H 2.1196282459 1.4616730119 -2.7419641455
H -0.2467079571 0.3155949282 1.4392079103
H 2.1767682898 0.4611393687 1.4281069349
H -2.2418112595 0.8154028893 1.3571204210
H -3.6145351732 0.7115943443 0.2336041579
H -1.5512009279 -1.5210589347 0.5736001917
H -3.1663404426 -2.7253762738 1.8521289799
H -2.9455776681 -1.1678431455 2.6588565965
H -5.0138523137 -0.4796533750 1.8622363758
H -7.3610755398 -1.6873862365 0.9912938156
H -7.2013375010 -0.7818749526 2.5140337713
H -7.8671977204 -2.4247465836 2.5273094438
H -4.4199962633 -2.8997220607 3.9215204056
H -6.1473282258 -3.1198275958 4.2380255660
H -5.4523592914 -1.4859906843 4.2273192629
H -5.8646495610 -3.6477088806 0.5125443466
H -6.3883722433 -4.3968369510 2.0372381238
H -4.6667208420 -4.1992112767 1.7028542332
H -4.1165684232 -1.7294738001 -0.4800771562
H -2.5680756517 1.4885973553 -3.0359477719
H -1.9481886085 -0.1537636645 -3.0373332603
H -1.9324797269 0.8125855778 -4.5562295302
