78
CONF877
C -0.8016528506 -0.6603052309 -0.4777910878
C 0.1221490168 -1.8154732954 -0.8330682093
O -0.7210378613 -3.0035761210 -0.6268459723
C -1.7353274828 -2.7203361449 0.2313980241
O -2.5077666004 -3.5765764700 0.5962898385
C -1.6438444754 -1.2687690472 0.6324962898
C -2.9172883739 -0.4596617265 0.8928722166
C -3.9719702534 -0.6133895409 -0.1970761065
C -3.9855145250 0.2279396954 -1.3116204323
C -4.9356005260 0.0522422398 -2.3194465266
O -5.0258531060 0.8182721223 -3.4455720551
C -4.0501654410 1.8556381805 -3.6076304518
C -5.8895088031 -0.9649951339 -2.2087423015
O -6.8189818857 -1.1198450176 -3.1990549452
C -5.8808055007 -1.7928685955 -1.0798657148
O -6.8711862007 -2.7365912272 -1.0815633622
C -6.9215039861 -3.6443688210 0.0276118747
C -4.9304172880 -1.6214190738 -0.0759266298
C -2.5107512021 0.9968961706 1.0805950324
C -3.4549462598 1.8409266356 1.7029692419
C -3.1429960460 3.1707307232 1.8329274638
C -1.9402508739 3.6904185808 1.3641782588
O -1.8831170079 5.0367003427 1.6091032423
C -3.1181096906 5.3777932879 2.2772773624
O -3.8963169807 4.1646445837 2.3947444296
C -1.0059107543 2.8964128625 0.7507607025
C -1.2990778642 1.5207167891 0.6088073130
C -0.2171902647 0.6579056752 -0.0138177496
O 0.8018368988 0.4082855870 1.0004073609
C 2.0660565625 0.8923682168 0.6957648855
O 2.6418902680 0.0423890070 -0.3109976447
C 3.9419423977 0.4974375059 -0.6746861359
C 4.4824493078 -0.3573116936 -1.8063181570
O 5.8241973583 0.0820353564 -2.0931555333
C 6.6917327079 0.0374610848 -0.9668441867
O 6.1949920890 0.7810578903 0.1365706402
C 4.8787140901 0.3575621057 0.5229049126
C 4.3742731693 1.2208164071 1.6608532983
O 5.1661059514 1.1303878614 2.8456258403
C 2.9158669722 0.8444552811 1.9638379733
O 2.3492544301 1.7521803557 2.9016182348
C 7.0396079625 -1.3752666815 -0.5672674049
C 7.3736315085 -1.8516253377 0.6725108040
C 7.7545987870 -3.2212671847 0.6611148710
C 7.7188050584 -3.7730149213 -0.5900306716
S 7.2111004179 -2.6163227456 -1.7770044854
H -1.4511949122 -0.4541267931 -1.3380956505
H 0.9777341132 -1.8907153253 -0.1579372741
H 0.4531081736 -1.8322101895 -1.8719776704
H -1.0470605806 -1.2714282646 1.5599407731
H -3.3639692578 -0.8121691253 1.8295591317
H -3.2682517444 1.0362698968 -1.3781366077
H -4.1246561054 2.5967244354 -2.8029240581
H -4.2789479197 2.3281842145 -4.5632677013
H -3.0355768983 1.4404749850 -3.6336875650
H -7.3916494037 -1.8608243929 -2.9494782604
H -7.7575153317 -4.3136127327 -0.1758808503
H -5.9923553258 -4.2210435079 0.1003500687
H -7.0979627187 -3.1043465617 0.9647064561
H -4.9208890022 -2.2668666871 0.7929528152
H -4.4007846248 1.4441784471 2.0578671983
H -3.6701612333 6.1027024570 1.6701608380
H -2.8942819601 5.7616125847 3.2781984292
H -0.0719792280 3.3074768529 0.3817983314
H 0.2481994530 1.1927060545 -0.8501037666
H 2.0243587216 1.9261727498 0.3059946731
H 3.9092838052 1.5528535124 -0.9921949349
H 3.9123485944 -0.2220781212 -2.7281286680
H 4.4637733517 -1.4180178780 -1.5170272429
H 7.5897932488 0.5750290223 -1.2896829785
H 4.8944571853 -0.6990949007 0.8356539740
H 4.4147867666 2.2759967246 1.3609333085
H 5.2066142495 0.1996947078 3.1103825456
H 2.8868512040 -0.1896583037 2.3481131558
H 2.9812932365 1.8323733490 3.6301276839
H 7.3429499278 -1.2352039322 1.5635382454
H 8.0411932802 -3.7764192067 1.5467520286
H 7.9483782863 -4.7878525850 -0.8874208701
