31
CONF1
C 3.8542133932 2.1880514567 0.5503110789
O 3.0209172832 1.2596380565 -0.1814013521
C 2.2829135342 0.4447595827 0.5897335064
O 2.1593271582 0.5341140141 1.7867839800
C 1.5216794585 -0.5380376604 -0.2490250753
C 2.1212431018 -1.4729133153 -1.0925961301
C 1.3601999522 -2.3218189515 -1.8908219197
C -0.0188920560 -2.2550859484 -1.8378374892
C -0.6262870984 -1.3357338667 -0.9814881159
C 0.1341717004 -0.4790242621 -0.1894122758
O -1.9967047074 -1.3532072203 -0.9645877719
C -2.6617726887 -0.3635043036 -0.2675564328
C -2.8271291261 0.9124194203 -0.8108919926
C -3.5569793647 1.8783883473 -0.1279174851
C -4.1204927645 1.5468936511 1.0988350160
C -3.9716127259 0.2801178242 1.6519731103
C -3.2354582671 -0.6718335103 0.9584593331
Cl -5.0401980476 2.7588053844 1.9586478255
Cl -2.1178265493 1.2977509792 -2.3516114321
N 3.5782579953 -1.6414357522 -1.0958724044
O 4.0849912075 -2.1778511310 -2.0740257157
O 4.1913878287 -1.2615536267 -0.1032407974
H 4.3783173375 2.7656913817 -0.2099304649
H 4.5606192052 1.6335237546 1.1732144947
H 3.2396380277 2.8359873975 1.1798070548
H 1.8634117984 -3.0358861076 -2.5309904922
H -0.6391880428 -2.9082363370 -2.4402535723
H -0.3378821444 0.2389644234 0.4712632979
H -3.6848205345 2.8666944754 -0.5511141157
H -4.4201243596 0.0438549929 2.6089792560
H -3.0959211028 -1.6695331489 1.3600670744
