26
CONF26
C -2.4645679611 0.1431378205 0.7764312952
C -1.5592804565 1.0860604695 -0.0018071286
C -0.1959840455 0.4756139918 -0.3764049465
C 0.5468998417 -0.1168939104 0.8327916580
C 2.0198662868 -0.5023324985 0.6003244759
C 2.3053332025 -1.5773861824 -0.4483346295
O 2.2540512893 -1.0615789467 -1.7803125657
O 2.7911175940 0.6746256335 0.3243932127
O 0.5045105263 0.8199363285 1.9183371908
O -0.3765291923 -0.5062254673 -1.4181519550
O -2.2019861424 1.5748965673 -1.1840674715
O -2.6178169914 -1.0806121058 0.0281816573
H -2.0256331031 -0.0582573768 1.7620490744
H -3.4394739865 0.6281345871 0.9174797967
H -1.3829906027 1.9589051126 0.6334221253
H 0.4109804821 1.2714123420 -0.8264133387
H 0.0110537218 -1.0136517046 1.1720187723
H 2.3725741255 -0.8835476915 1.5680725188
H 1.6161525832 -2.4233163195 -0.3135167069
H 3.3274558057 -1.9393740305 -0.2983660958
H 2.8161987394 0.7552117160 -0.6422940421
H 1.1689523826 1.4952194400 1.7132239550
H -1.0016763826 -1.1673416835 -1.0700814746
H -2.1622316983 0.8641119277 -1.8397210092
H 1.3061500095 -0.9103338154 -1.9602931004
H -3.1035384864 -1.7125899669 0.5707280860
