50
CONF165
C -1.7060322093 0.5241513602 -1.6391777031
C -1.8029664617 -0.9505963480 -1.9483755607
C -0.6698985941 -1.6792276264 -2.6178401923
C -0.9848050246 -1.9597767372 -1.1375721640
C -0.0551033762 -1.5047556942 -0.0966538476
O 0.8118830793 -0.6621554460 -0.1995728966
O -0.3061918898 -2.1737798070 1.0716099339
C 0.4939329008 -1.7376156165 2.2098011339
C 0.5714449935 -2.8959779304 3.0970832449
N 0.6499367059 -3.7968956322 3.8145025176
C -0.1344963113 -0.5371752510 2.8802729879
C 0.4175547444 0.7195125299 2.6470389766
C -0.1999445447 1.8409095074 3.1953888331
C -1.3359843050 1.7152787277 3.9901778108
C -1.8655891391 0.4504079793 4.2264736054
C -1.2771505097 -0.6797866715 3.6688032250
O 0.3148324087 3.1094889926 3.0310943993
C 0.9465767923 3.4153831795 1.8317351454
C 2.1481357223 4.1099197762 1.9006806233
C 2.7760306228 4.4933147347 0.7176102276
C 2.2116153284 4.1771037979 -0.5159814283
C 1.0032609511 3.4829500469 -0.5652438695
C 0.3591106725 3.1032445081 0.6079802822
C 0.5578933917 -0.9711901648 -3.0151290496
C 1.6198810396 -1.4800218448 -3.6447547551
C 1.8819453557 -2.9133382879 -4.0101590533
F 1.8360496650 -3.1077071184 -5.3532403077
F 0.9867016779 -3.7539095341 -3.4540022180
F 3.1080617306 -3.3180183197 -3.6020061606
Cl 2.9310092936 -0.4299243265 -4.1608542303
C -3.2008601790 -1.4059548195 -2.3068592345
H -0.7155396636 0.8316937820 -1.3030761530
H -1.9677994238 1.1029374675 -2.5315606414
H -2.4219673557 0.7773507732 -0.8502569887
H -0.9651639575 -2.5044759214 -3.2555895659
H -1.4750676513 -2.9037857606 -0.9264332731
H 1.5071118401 -1.4977708629 1.8680530890
H 1.3057228897 0.8244247490 2.0347499753
H -1.7916710118 2.6046473353 4.4123977922
H -2.7509080817 0.3493544103 4.8455297559
H -1.7015104622 -1.6629665522 3.8466992784
H 2.5775452450 4.3414016740 2.8697609846
H 3.7151587144 5.0355155508 0.7644708351
H 2.7079322160 4.4720289249 -1.4345259839
H 0.5511734176 3.2413878926 -1.5224634521
H -0.5856162608 2.5702150001 0.5786032219
H 0.5966321190 0.0958783590 -2.8210540736
H -3.2298382716 -2.4746102749 -2.5361955458
H -3.8882953976 -1.2084824908 -1.4778853749
H -3.5547335417 -0.8536016207 -3.1840541557
