48
CONF14
C -3.4244495211 1.3178047615 1.6125298742
C -3.7944414872 1.1395447789 0.1310935059
C -3.1394363499 2.2413535971 -0.7095105028
C -5.3246679940 1.2583377564 0.0172683844
C -3.3977135617 -0.2780011822 -0.3788239601
C -1.9057611043 -0.4626752392 -0.6919946983
N -1.6444690843 -1.8128889619 -1.1907415754
C -1.2582347629 -2.1947427399 -2.4254164839
N -1.2002565543 -3.5174784207 -2.4970530352
C -1.5761125074 -3.9010439300 -1.2424530979
N -1.8615653681 -2.9040815535 -0.4165574365
O -1.1724354885 -0.2391118481 0.4890126193
C 0.1975630713 -0.1069844299 0.4227518347
C 0.9323372730 0.0446896870 -0.7517249536
C 2.3148271312 0.1911602399 -0.6737876073
C 2.9884207569 0.1919230925 0.5522796607
C 2.2218401488 0.0420123232 1.7184103481
C 0.8460184797 -0.1098630354 1.6588221798
C 4.4562370855 0.3437693641 0.6178027346
C 5.0585489150 1.0690819985 1.6564072595
C 6.4409302319 1.2121446527 1.7179291421
C 7.2518661708 0.6356106929 0.7421952654
C 6.6661274561 -0.0870529287 -0.2954803487
C 5.2840140787 -0.2327723692 -0.3568793937
O -4.0173417931 -0.5945989516 -1.6308494001
H -3.8483692420 2.2599383096 1.9761387337
H -2.3452962152 1.3478557760 1.7673150388
H -3.8390136775 0.5052320742 2.2200813690
H -3.5436571833 3.2164534495 -0.4184081651
H -2.0547359988 2.2764871209 -0.5574996691
H -3.3394097893 2.0973653101 -1.7767799231
H -5.8258803527 0.4299871473 0.5333281547
H -5.6508194107 2.1913552832 0.4869532012
H -5.6562509371 1.2768082542 -1.0250329730
H -3.6829192204 -1.0167046198 0.3850226583
H -1.6200084637 0.2200650920 -1.5004033380
H -1.0365885608 -1.4878452577 -3.2148665209
H -1.6383913158 -4.9353690582 -0.9277879634
H 0.4607430382 0.0676733476 -1.7260403005
H 2.8722986145 0.3294342751 -1.5948826952
H 2.7113488645 0.0163111445 2.6869104604
H 0.2593846590 -0.2406769150 2.5623227446
H 4.4376053295 1.5436313784 2.4102200831
H 6.8855978533 1.7843613136 2.5265530292
H 8.3303999699 0.7480903469 0.7903007271
H 7.2884253943 -0.5484732535 -1.0563481317
H 4.8433162695 -0.8193644213 -1.1572935601
H -4.9496228523 -0.7766561634 -1.4650336561
