48
CONF16
C -2.9654998040 0.7371657459 3.1375451249
O -4.0471807450 0.5533115858 2.2190687465
C -3.7824462429 -0.1158824216 1.0657605893
C -4.8926860965 -0.2549562348 0.1963124713
C -4.7528277217 -0.9068299782 -0.9972376202
C -3.5036182081 -1.4504464499 -1.3910199228
N -3.4335703855 -2.0796931067 -2.5953417666
C -2.2669496292 -2.5816995126 -2.9504511675
C -1.1046948398 -2.5044182971 -2.1596643273
C -1.1445785168 -1.8716888752 -0.9372059335
C 0.0975634489 -1.7531105842 -0.0770857953
O 1.0844141059 -2.7248361762 -0.4336024976
C 0.6902638187 -0.3364876223 -0.2083425294
C 1.4265230390 -0.0863904085 -1.5497606062
C 2.6152352585 0.8390081765 -1.2553288427
C 3.6412536069 0.0656250940 -0.4189572420
C 2.9003140060 -0.5313387595 0.8098529982
N 1.5387496180 0.0344204500 0.9464176928
C 1.6659924024 1.5069439022 0.9534215765
C 2.1037992891 2.0496634284 -0.4342836520
C 3.0948789354 3.1763417826 -0.4172134283
C 3.5632770448 3.8458410494 0.6350475701
C -2.3843432999 -1.3118053608 -0.5124890641
C -2.5506035683 -0.6351611943 0.7228108866
H -2.1516663183 1.3103879698 2.6763978774
H -3.3806740142 1.2972993017 3.9756184790
H -2.5819642628 -0.2275219747 3.4913342109
H -5.8446825203 0.1656587661 0.5032628617
H -5.5931458287 -1.0221942986 -1.6738900292
H -2.2241349099 -3.0807281787 -3.9180659710
H -0.1783929019 -2.9409610711 -2.5163480294
H -0.1783806334 -1.8897231453 0.9785482370
H 0.7144985824 -3.5965202555 -0.2471299697
H -0.1727643176 0.3386717945 -0.1536694379
H 0.7457743802 0.3715131352 -2.2756579238
H 1.7904933554 -1.0249142818 -1.9803662896
H 3.0656858441 1.1884704884 -2.1910127061
H 4.4479608322 0.7385845502 -0.1062413352
H 4.0911580087 -0.7298802383 -1.0229229545
H 3.4424680387 -0.3142246411 1.7372764465
H 2.8089720445 -1.6152049265 0.7245031832
H 2.4070303141 1.7549457357 1.7204016589
H 0.7109912242 1.9503777581 1.2603434890
H 1.2176472134 2.4317385520 -0.9663661330
H 3.4424855004 3.4740619250 -1.4086856486
H 4.2722594765 4.6571661979 0.5020469741
H 3.2627565677 3.6260405093 1.6549273394
H -1.7076427099 -0.5266203921 1.3918823068
