39
CONF122
C 3.6053411563 1.8187144830 -2.8399535952
C 4.3022015280 0.6114738364 -2.2127993528
C 4.3830220311 0.6658854462 -0.6831963067
C 3.0362121881 0.7596536963 -0.0035211028
C 3.0592384574 0.6739963907 1.5265982066
O 1.8903425701 -0.1106521010 1.8596938316
C 1.2379155742 -0.4460144588 0.6368133164
C 0.7563994569 -1.9010941222 0.7397599699
N -0.2853540417 -2.0433114356 1.7390788893
C -0.1599453550 -2.1587737136 3.0771196399
N -1.3567859882 -2.1692415922 3.6504966151
C -2.1996159954 -2.0438357899 2.5862329258
N -1.5987323129 -1.9618871657 1.4062951050
O 2.2335721506 -0.3941439745 -0.3548356990
C 0.0954324067 0.5417079976 0.3665573709
C -0.5765381156 0.6346728348 -0.8567976000
Cl -0.1633328610 -0.3873714192 -2.2275020572
C -1.6211575572 1.5301146172 -1.0610694042
C -2.0095316285 2.3443987480 -0.0064875840
Cl -3.3285345693 3.4746305925 -0.2544718359
C -1.3826300069 2.2822210668 1.2294374155
C -0.3387317452 1.3811412586 1.3949354983
H 2.5436685023 1.8554439156 -2.5743141369
H 4.0681485858 2.7557395394 -2.5097523784
H 3.6683366515 1.7780048863 -3.9316111312
H 5.3239694070 0.5366757184 -2.6027110121
H 3.7867082587 -0.3082698699 -2.5129245081
H 4.9671587228 1.5429019025 -0.3737290694
H 4.9042248134 -0.2213539131 -0.3029773305
H 2.4983156958 1.6651602460 -0.3186957222
H 2.9927522127 1.6585907519 2.0006576135
H 3.9450530445 0.1416628476 1.8911701240
H 0.3594996111 -2.2370659584 -0.2190764960
H 1.6128083303 -2.5186261729 1.0213889822
H -3.2781571045 -2.0200892264 2.6779932894
H -2.1203983116 1.5837987499 -2.0206563812
H -1.6986233251 2.9204050732 2.0460433399
H 0.1617475764 1.3189178856 2.3539437819
H 0.7995362940 -2.2385487413 3.5702612475
