47
CONF76
C -4.8285177528 -3.1021620028 2.5795006661
O -4.8961270302 -2.1760174607 1.4578248838
P -4.3333602906 -2.6378577696 0.0252495743
S -2.5506067762 -3.3891724547 -0.0325786180
O -5.4266623611 -3.6129111447 -0.6069996181
C -6.8354979419 -3.2263854250 -0.6339795249
O -4.5941340093 -1.2743489265 -0.8160111975
C -3.6764097140 -0.2287311416 -0.8830246958
C -3.3538444353 0.2413096659 -2.1480926511
C -2.4646191684 1.3046442332 -2.2687502150
C -1.9170681566 1.8895082040 -1.1266853612
C -2.2676970132 1.4150374398 0.1399340828
C -3.1455731616 0.3466477351 0.2678541485
S -0.8117119998 3.2849239734 -1.2963071364
C 0.7363101855 2.6337915002 -0.6769315093
C 1.0242227724 1.2680851346 -0.6358018153
C 2.2628204593 0.8316248787 -0.1776663165
C 3.2103328021 1.7668580547 0.2172501862
C 2.9438240633 3.1282407134 0.1726395345
C 1.6988527061 3.5620077114 -0.2661641375
O 4.4461879840 1.3537243803 0.7236361912
P 5.5792503803 0.6820393348 -0.2401977531
S 5.7292037319 1.4484091616 -2.0122956902
O 5.2726206992 -0.8826082650 -0.2734336721
C 5.1226140138 -1.6336955200 0.9710391070
O 6.8384963633 0.7537231777 0.7420179903
C 7.4483876826 2.0403188288 1.0417854829
H -5.2745131991 -2.5745095697 3.4219686730
H -3.7862101827 -3.3515879735 2.7940313070
H -5.3994268314 -4.0081676087 2.3570237251
H -7.3663546014 -4.0944297950 -1.0230553545
H -7.1828826432 -2.9916032789 0.3751317982
H -6.9726206667 -2.3691239348 -1.2968776980
H -3.7839731809 -0.2319445210 -3.0238557768
H -2.1887215586 1.6689655901 -3.2524135878
H -1.8516259842 1.8788113716 1.0282140927
H -3.4244494865 -0.0237937428 1.2479287680
H 0.2886960605 0.5389197983 -0.9568739569
H 2.4889643823 -0.2288054868 -0.1362694418
H 3.7013354349 3.8370892780 0.4893864328
H 1.4786366924 4.6247945786 -0.2886262289
H 4.7400495183 -2.6102885235 0.6763447306
H 6.0938073613 -1.7352065982 1.4593599433
H 4.4098948382 -1.1338280769 1.6322589932
H 7.8066208382 2.5064847902 0.1201357677
H 6.7266619139 2.6895309169 1.5446543931
H 8.2848161719 1.8216889648 1.7047674916
