22
CONF1
C -1.1796332610 -0.6948672405 0.0222063001
C -1.1796444902 0.6948232158 0.0222500234
C -2.3802637476 1.3981177762 0.0059872374
C -3.5956610892 0.6997981686 -0.0104919027
C -3.5956497178 -0.6998794396 -0.0105362145
C -2.3802410406 -1.3981803190 0.0058984445
Cl -2.3284614701 -3.1234066621 0.0064198095
Cl -5.0834389177 -1.5734594030 -0.0306509709
Cl -5.0834643469 1.5733551976 -0.0305517703
Cl -2.3285123730 3.1233449010 0.0066195655
O -0.0125788865 1.4150192621 0.0378064001
C 1.1544693537 0.6948410912 0.0553203776
C 1.1544805646 -0.6948495283 0.0552766962
O -0.0125560956 -1.4150454257 0.0377178049
C 2.3550751620 -1.3981440831 0.0732635057
C 3.5704502680 -0.6998245240 0.0912622122
C 3.5704390046 0.6998529993 0.0913059860
C 2.3550525662 1.3981539545 0.0733508169
Cl 2.3032737081 3.1233804899 0.0728286928
Cl 5.0582039234 1.5734315950 0.1133312147
Cl 5.0582292339 -1.5733805206 0.1132338313
Cl 2.3033243678 -3.1233713513 0.0726327188
