41
CONF41
C 0.0822907250 -3.3531893314 -1.3759377025
C -0.3950025909 -2.0110890295 -0.9514866227
C -1.6224486228 -1.6600671456 -0.4604830600
C -1.5794763512 -0.2672884628 -0.1025333170
C -0.2781680806 0.2053288653 -0.3822545209
N 0.4577720127 -0.8875358209 -0.8933060304
C 1.7687026308 -0.8626858297 -1.3863973514
O 2.1134288011 -1.5723835558 -2.3207697807
C 2.7338222192 0.0176817736 -0.6817166711
C 3.7400146788 0.6407259522 -1.4245168463
C 4.7044461408 1.4134705079 -0.7928744016
C 4.6647795758 1.5274354183 0.5936598267
C 3.6894783006 0.8946948652 1.3581797750
C 2.7161457256 0.1460248518 0.7105706612
Cl 5.8864037795 2.4915243648 1.4029621790
C 0.0413098858 1.5476619773 -0.2375866559
C -0.9328816091 2.4122977992 0.2616065120
C -2.2144445354 1.9389501771 0.5886686469
C -2.5493790029 0.5984617346 0.3969810404
O -3.2108849145 2.7296964904 1.0911825474
C -2.9224059706 4.1174333412 1.2914928278
C -2.7992392771 -2.5592366986 -0.2887991026
C -2.9570483951 -3.2209345429 1.0661713436
O -3.7232182169 -4.1374149933 1.2785902291
O -2.1773176362 -2.6782739424 2.0202959700
H 0.2226800003 -3.4159795049 -2.4586037778
H -0.6470165959 -4.1067964187 -1.0722526282
H 1.0418177823 -3.5964223282 -0.9098090317
H 3.7571367602 0.5268437801 -2.5031896413
H 5.4763012151 1.9152382575 -1.3648235178
H 3.6905534449 0.9862427943 2.4381009137
H 1.9470697512 -0.3495449141 1.2937607108
H 1.0156220912 1.9431565006 -0.4952778340
H -0.6785546953 3.4569713775 0.3859346366
H -3.5536842911 0.2575969846 0.6278950033
H -2.6692305704 4.6100716149 0.3450088290
H -2.1032817217 4.2521520882 2.0081367975
H -3.8362524840 4.5536536644 1.6962759238
H -2.8119510406 -3.3633843794 -1.0293296779
H -3.7290539275 -1.9966345186 -0.4475807954
H -2.3588353087 -3.1444532671 2.8546951011
