50
CONF6
C 5.3799329694 2.8405650146 0.6988261475
C 4.4960269721 3.6105364435 1.6590900736
O 3.1118472642 3.1984882257 1.5400996826
C 2.7865353883 2.0653428202 2.2258928171
O 3.5699997204 1.4486941607 2.9265264299
N 1.4631115632 1.7418462125 2.0615708914
C 1.0457456852 0.4105570036 2.4880332977
C 1.1234301324 -0.5814454289 1.3125233027
C 0.3413597240 -0.0698563035 0.1310812397
C -0.6633179346 -0.7692371623 -0.4349964719
C -1.0598786429 -2.1198653136 0.0418243156
C -2.3035479509 -2.2770714816 0.6698560518
C -3.1826474959 -1.0694231552 0.8140936733
C -3.7896140857 -0.6530281937 -0.5302895674
C -2.8470515225 -0.2700914664 -1.6559458997
C -1.4375122119 -0.2811381619 -1.6124203228
N -0.6872202395 0.0957472114 -2.6662034462
C -1.2869622656 0.4973889682 -3.7836014979
C -2.6687958917 0.5410926846 -3.9290775823
C -3.4409546435 0.1525077450 -2.8475847232
C -2.7043241160 -3.5364719665 1.1105076044
C -1.8652120273 -4.6272661826 0.9184797582
C -0.6328676601 -4.4942793495 0.2925605547
C -0.2412253870 -3.2337694269 -0.1460096241
Cl -2.3791347238 -6.2094999699 1.4807187944
C 0.7187853288 1.3326139814 -0.2628414913
C 0.6571103743 2.2659229004 0.9613485402
H 5.0260140369 2.9560659399 -0.3298893792
H 5.3918895998 1.7792069704 0.9577087425
H 6.4053532340 3.2200299025 0.7548333007
H 4.4769701561 4.6766663190 1.4177453471
H 4.8205325854 3.4761120293 2.6946367290
H 1.6848192106 0.0874889070 3.3109282165
H 0.0102853766 0.4754422915 2.8476207742
H 2.1826466312 -0.6843034249 1.0355527929
H 0.7683400660 -1.5616213128 1.6387935694
H -2.5976465975 -0.2385406377 1.2266243160
H -3.9995250038 -1.2753105452 1.5129458590
H -4.4221173628 -1.4758244535 -0.8909795683
H -4.4661118664 0.1949912246 -0.3601263032
H -0.6312764433 0.7900592453 -4.6025283128
H -3.1220679785 0.8668349598 -4.8591494200
H -4.5262120783 0.1763815370 -2.9157412407
H -3.6605919813 -3.6682017701 1.6058184864
H 0.0045454622 -5.3585138903 0.1481987550
H 0.7154925180 -3.1095356786 -0.6439258773
H 1.7477481214 1.3405401690 -0.6490416913
H 0.0748705016 1.7197043682 -1.0529370281
H 0.9939547395 3.2688130045 0.7012954017
H -0.3815301714 2.3346542524 1.3125550807
