51
CONF60
O 3.7937216669 -0.6070200775 0.0269186241
C 3.5275165084 0.7656544141 0.3450272732
C 2.0355875610 0.9824399238 0.1041895191
C 1.6218022215 0.7540042068 -1.3487516119
C 0.1167212537 0.8540321207 -1.5233491085
C -0.7400875711 -0.3488071349 -0.9920751631
N -1.1878971043 -0.5481564125 -2.3874059581
C -0.4288018978 0.4869734824 -2.9098642701
O -0.2715349043 0.8909762495 -4.0381127083
C -2.0296296087 -1.5127700810 -2.9417794721
C -2.3155955530 -1.4961373467 -4.3140187973
C -3.1560531132 -2.4604575316 -4.8536694465
C -3.7013807166 -3.4237339322 -4.0201077133
F -4.5252211717 -4.3585089456 -4.5496312945
C -3.4332937845 -3.4598535419 -2.6629259005
C -2.5901865458 -2.4970825658 -2.1208247463
C -1.8167315252 -0.0494654606 0.0077175824
C -2.9532349178 0.6778903965 -0.3482699978
C -3.9241766849 0.9894392341 0.5942617822
C -3.7652051351 0.5765236462 1.9179948320
O -4.6840321067 0.8492170082 2.8913588727
C -2.6374491016 -0.1535194466 2.2893107872
C -1.6794393171 -0.4633545496 1.3342209811
C 3.9106653421 1.0987075634 1.7693802428
C 3.6331916237 0.2003576555 2.8029082131
C 3.9430383186 0.5119188224 4.1214641149
C 4.5323673146 1.7374841446 4.3888704856
F 4.8395282557 2.0463825930 5.6687107314
C 4.8250404264 2.6528717698 3.3924644109
C 4.5110650377 2.3191907757 2.0783481235
H 4.7241907244 -0.7761807153 0.2145339923
H 4.0930905616 1.4253583477 -0.3352376154
H 1.4865467388 0.3025943865 0.7699235443
H 1.7778733648 2.0021945835 0.4150997901
H 2.1037934760 1.4948444087 -1.9990488058
H 1.9638240815 -0.2320017407 -1.6827806999
H -0.2707175481 1.8164934055 -1.1693313318
H -0.1087322338 -1.1781602571 -0.6430694978
H -1.8727218648 -0.7332471521 -4.9424636105
H -3.3898825766 -2.4695416938 -5.9122285046
H -3.8804049786 -4.2289587292 -2.0436167227
H -2.3788638010 -2.5023943973 -1.0573258664
H -3.0897377251 0.9925241084 -1.3790467666
H -4.8088170908 1.5486423353 0.2994500811
H -5.4126589096 1.3508509358 2.5085282095
H -2.5316985548 -0.4742777226 3.3197279732
H -0.8064394146 -1.0414382261 1.6269524388
H 3.1779344787 -0.7560088022 2.5655976406
H 3.7376756337 -0.1749692682 4.9348365507
H 5.2952028270 3.5960088640 3.6467791429
H 4.7402478552 3.0224700522 1.2820657746
