33
CONF44
O -3.7009779367 -2.4395616310 3.2783619973
C -3.2756955281 -1.6948313931 2.2317489570
C -4.2641600432 -1.2174673550 1.3679212895
C -3.8833555579 -0.4469181755 0.2813748902
O -4.8290328371 0.0400274628 -0.5383432953
C -2.5110349041 -0.1478684299 0.0364506096
C -2.1256084465 0.7585269013 -1.0080260886
O -2.9478730247 1.2722244634 -1.7955997871
C -0.6632781237 1.1096653437 -1.0727281049
C 0.1939322203 -0.0484362584 -0.5784722045
O -0.2210584776 -0.4320886866 0.7693870896
C -1.5448102122 -0.6714027509 0.9323247224
C -1.9153913296 -1.4353852193 2.0265454692
C 1.6561766589 0.2836916970 -0.5284179249
C 2.1536871465 1.1897598528 0.4066793887
C 3.5049165133 1.5236375986 0.4027623479
C 4.3696749248 0.9742576312 -0.5398537006
O 5.7013042501 1.2691783577 -0.6031002088
C 3.8713982066 0.0638208572 -1.4861049792
O 4.7628226681 -0.4485093386 -2.3855269361
C 2.5237457050 -0.2800781651 -1.4659105658
H -2.9455357481 -2.7179957613 3.8156452286
H -5.3094306979 -1.4372076429 1.5510673270
H -4.3463988114 0.5990789796 -1.2111774383
H -0.3896559269 1.3701946071 -2.0987886752
H -0.4953812044 1.9949883124 -0.4432775551
H 0.0296518984 -0.9221924741 -1.2241425848
H -1.1595679265 -1.8347432059 2.6946213420
H 1.4935216368 1.6345689940 1.1439855564
H 3.8992833664 2.2236023578 1.1349561707
H 5.9192865289 1.9088045747 0.0884596575
H 4.2991169452 -1.0491266604 -2.9847168867
H 2.1497289774 -0.9922155523 -2.1981053145
