38
CONF51
O 0.7899506967 -0.6296349334 1.6966862689
P 1.1238351382 -0.7852294983 0.2652726263
O 1.2846696956 -2.2767245722 -0.3075960008
C 0.1267898009 -3.0705623252 -0.4217466500
C -0.5042697412 -3.5518976099 0.7171493669
C -1.6381849847 -4.3465460274 0.5610174828
C -2.1154818280 -4.6529176965 -0.7112801699
C -1.4561119731 -4.1662044035 -1.8385076352
C -0.3259802332 -3.3647981201 -1.6999194774
O 2.5508890956 -0.2458268174 -0.2262362623
C 2.9034731066 1.0808397105 0.0968029821
C 2.7019699073 2.0666300787 -0.8584956448
C 3.0893601206 3.3708081770 -0.5593243541
C 3.6642067557 3.6679807572 0.6744004615
C 3.8572633666 2.6583515216 1.6153785551
C 3.4760163357 1.3492616328 1.3316690664
O 0.0776154632 -0.0882740285 -0.7442574881
C -1.1340406196 0.4617441537 -0.2912421205
C -1.1338304535 1.7196429332 0.2934007899
C -2.3511202559 2.2729621032 0.6826627545
C -3.5390378085 1.5721671958 0.4828804886
C -3.5121120855 0.3110944156 -0.1089822131
C -2.3019031894 -0.2567551996 -0.5008817700
H -0.1167435897 -3.3066494594 1.6996369186
H -2.1453190900 -4.7284436546 1.4411185337
H -2.9984624498 -5.2731252844 -0.8247053916
H -1.8229451394 -4.4044706391 -2.8316520792
H 0.1973649357 -2.9652076894 -2.5617996925
H 2.2520471897 1.8122048636 -1.8120046676
H 2.9398202797 4.1539677066 -1.2955157952
H 3.9638562003 4.6856831308 0.9019211248
H 4.3074510174 2.8861584591 2.5761384809
H 3.6162849969 0.5483217781 2.0490872133
H -0.1969665314 2.2477287079 0.4403876191
H -2.3674721665 3.2554801752 1.1432615056
H -4.4844179780 2.0088320219 0.7876381442
H -4.4346203844 -0.2382537608 -0.2669419206
H -2.2584561788 -1.2383853024 -0.9618043062
