49
CONF45
C -3.8952785239 -1.8648998533 1.4945332378
C -3.6236220807 -0.3769738584 1.4223025690
C -2.1775391468 0.1527094658 1.5454065069
C -3.2327995497 0.3845939157 2.6522981592
C -3.6715149951 1.8256794052 2.8297916239
C -3.0962448576 -0.3224198010 3.9839672633
C -1.0232997928 -0.7210930268 1.7305271847
O -0.9398649556 -1.7762067762 2.3274008722
O 0.0754040384 -0.1700686253 1.0957630389
C 1.3080262319 -0.9137171874 1.2412390876
C 1.2353305373 -2.1523011849 0.4546228851
N 1.2062818877 -3.1152513057 -0.1828061717
C 2.4371415231 -0.0300056533 0.7690165296
C 3.3475810488 0.4728661402 1.6948331995
C 4.3638930760 1.3210481923 1.2585151901
C 4.4779711216 1.6550632235 -0.0844416972
C 3.5596520346 1.1396158561 -0.9999731000
C 2.5322039759 0.2998193012 -0.5828871977
O 3.6987976953 1.5537512010 -2.3054344026
C 3.2046531117 0.7456978730 -3.3235526758
C 2.3819785554 1.3406644673 -4.2718045578
C 1.9328683569 0.5798494744 -5.3494029669
C 2.2983698305 -0.7590024857 -5.4672323981
C 3.1262365279 -1.3383482912 -4.5058427060
C 3.5897762646 -0.5882974099 -3.4293889452
C -4.4619808956 0.2884998568 0.3472916187
H -4.9484585244 -2.0206622549 1.7552625385
H -3.2773785632 -2.3870100905 2.2217605007
H -3.7229756155 -2.3216474522 0.5138141650
H -1.9615694270 1.0266802934 0.9400514783
H -3.0056041635 2.3294609453 3.5383546901
H -3.6629626613 2.3932624356 1.8988470898
H -4.6865771336 1.8544978578 3.2427930163
H -2.7247952744 -1.3419263581 3.9024037573
H -4.0751226254 -0.3460826585 4.4765755290
H -2.4111534077 0.2366080106 4.6307463758
H 1.4511076146 -1.1930805130 2.2907067587
H 3.2635931815 0.2056645005 2.7430952578
H 5.0792141107 1.7184763631 1.9709648477
H 5.2694394572 2.3077206929 -0.4373460452
H 1.8142148823 -0.0884359744 -1.2979865902
H 2.1039535557 2.3835461106 -4.1606735141
H 1.2904989900 1.0377907420 -6.0949548281
H 1.9430680947 -1.3489747345 -6.3056672367
H 3.4220419564 -2.3788081556 -4.5966673471
H 4.2408238420 -1.0276533201 -2.6803168865
H -4.3248784234 -0.2361649861 -0.6041059420
H -4.2072061306 1.3374224400 0.1920652322
H -5.5232951520 0.2280429864 0.6152039966
