51
CONF26
C 0.5140002728 4.5874742270 -1.0257477716
C 1.5475696644 3.4785634781 -1.0542238642
C 2.5653323383 3.6399095832 -2.1685395722
O 0.7785005245 2.2504169167 -1.2662708701
C 1.3192476114 1.0810056190 -0.8939525057
N 2.5136714491 1.0598130972 -0.3136444286
C 2.9380678670 -0.1594218961 0.0503165933
C 2.2207670081 -1.3159393777 -0.1260908651
C 0.9643011991 -1.1464961424 -0.7461076976
N 0.5274561957 0.0328164291 -1.1564167536
O 0.2276355278 -2.2494141051 -0.8870909252
C -1.1447285303 -2.1540348062 -1.3879956918
C -2.0752367938 -2.7671860380 -0.3830238593
C -2.7600656757 -3.9386082801 -0.7037299489
C -3.6086282873 -4.5455884741 0.2154330147
C -3.7622622014 -3.9886765565 1.4798326992
C -3.0810481051 -2.8230466655 1.8115748346
C -2.2487751533 -2.1916705393 0.8877536817
C -1.5360076250 -0.9476594951 1.2652521124
C -1.8050173084 0.2447663544 0.6938813357
O -2.7643596958 0.3835610414 -0.2321370310
C -2.8141578906 1.6794908915 -0.8586573394
C -0.4687106933 -1.0533118686 2.2705867606
O -0.2169757209 -2.0555681892 2.9064504988
O 0.2518995194 0.1008856158 2.3978924892
C 1.3364940752 0.0275498166 3.3421112162
C 4.3095891690 -0.1684121147 0.6951362067
F 4.3401435108 0.6183584361 1.7933929021
F 5.2489236711 0.2918716604 -0.1575996297
F 4.6757966761 -1.4103576748 1.0760274562
H -0.0200586758 4.6407260094 -1.9795862354
H 1.0081499275 5.5475977892 -0.8531545474
H -0.2117650410 4.4229268973 -0.2245546503
H 2.0533653326 3.3942781842 -0.0872979866
H 2.0614034439 3.6777887743 -3.1394233225
H 3.1194914767 4.5730048889 -2.0283956896
H 3.2805319171 2.8147068930 -2.1650340082
H 2.5610674999 -2.2894206820 0.1963830244
H -1.3797462009 -1.1094303948 -1.5935188250
H -1.1612869743 -2.7205565915 -2.3231531415
H -2.6173264447 -4.3849944189 -1.6840414069
H -4.1339063184 -5.4571658962 -0.0501457611
H -4.4092346415 -4.4626000016 2.2109228765
H -3.1901103334 -2.3888100827 2.7997209988
H -1.2515341708 1.1411947661 0.9634956777
H -3.6323173009 1.6357196770 -1.5777420177
H -3.0224473353 2.4551351820 -0.1123431453
H -1.8683805745 1.8879049922 -1.3694886997
H 1.8428007466 0.9908215682 3.2791209932
H 0.9559206560 -0.1485567364 4.3521025463
H 2.0219614970 -0.7813616446 3.0744677729
