64
CONF932
C 7.9777436887 3.8707611224 0.8394575655
C 7.6410828972 2.5378718343 1.4736723250
O 7.9525277553 2.3002295939 2.6498908116
N 7.0018684565 1.6192892167 0.7013761440
C 6.5113096015 1.8358965148 -0.6564720525
C 4.9908219022 1.7003027287 -0.7055693985
N 4.5864598589 0.3907088400 -0.1961567827
C 5.0659935751 0.2034803269 1.1855613149
C 6.5827248893 0.3302942477 1.2464787002
C 3.2373690510 0.0185419174 -0.4146885781
C 2.8296879986 -1.2944979227 -0.1120948322
C 1.5331832828 -1.7151740755 -0.3471297979
C 0.5958680205 -0.8427474316 -0.9119801738
O -0.6577968836 -1.3600034754 -1.1113504405
C -1.6552283454 -0.4785228929 -1.6316911507
C -2.9443614652 -1.2651759244 -1.7360128221
C -4.1056176983 -0.4067918056 -2.2324395820
O -4.6703784025 0.0884739839 -1.0068864294
C -4.5641417867 -0.9689233758 -0.0778577051
C -4.4358781516 -0.3476012689 1.3231077290
N -3.2424099255 0.4625163635 1.4635338028
C -3.0942059330 1.7866095081 1.1082879223
C -1.7883247670 2.0990612093 1.3849398581
N -1.1286068694 0.9988117045 1.8977216639
C -2.0315977728 0.0351198399 1.9234665901
O -3.3849103992 -1.6920146501 -0.4276058074
C -5.7943300405 -1.8833778655 -0.1350553025
C -6.9367406097 -1.4361176249 -0.8035232440
C -8.0924065496 -2.2006627389 -0.8946078780
C -8.1074958951 -3.4476446801 -0.2864454467
Cl -9.5502675239 -4.4416845293 -0.3819495368
C -7.0073561156 -3.9325345290 0.4065236920
C -5.8657914282 -3.1399901000 0.4761985942
Cl -4.5221893892 -3.8100402051 1.3941486490
C 0.9807398477 0.4557282083 -1.2316346641
C 2.2869492036 0.8808838349 -0.9703471597
H 8.5410259240 4.4554382466 1.5661230570
H 7.0709045937 4.4202899729 0.5673869547
H 8.5791434592 3.7465447276 -0.0660220369
H 6.7950237336 2.8231014237 -1.0184365583
H 6.9642381250 1.0840110201 -1.3177676801
H 4.6726460418 1.7962267169 -1.7486128339
H 4.5363939190 2.5267488233 -0.1268576914
H 4.6078497830 0.9540693645 1.8561275172
H 4.7834775623 -0.7880592221 1.5447147451
H 7.0423301400 -0.4720589367 0.6530580603
H 6.9260093634 0.2538252182 2.2787604463
H 3.5449734312 -2.0026277899 0.2936511124
H 1.2334337405 -2.7317635905 -0.1116272896
H -1.3699898576 -0.1277344274 -2.6344488150
H -1.7898945780 0.3886541821 -0.9692154542
H -2.7934495155 -2.1575972485 -2.3523242747
H -3.7971628242 0.4515820950 -2.8322190534
H -4.8398662856 -1.0076021361 -2.7829758625
H -5.3212071093 0.2699991590 1.5002469765
H -4.4126298917 -1.1414310840 2.0718620195
H -3.9152753626 2.3627512115 0.7106690035
H -1.2908577815 3.0495812869 1.2489557249
H -1.8791111242 -0.9800075115 2.2678811679
H -6.9115701250 -0.4586357837 -1.2712385540
H -8.9605121502 -1.8298327163 -1.4265111156
H -7.0330539028 -4.9035791634 0.8855877877
H 0.2810830531 1.1611638897 -1.6641559710
H 2.5417534505 1.9058665049 -1.2114021269
