24
CONF418
C 1.6624623918 1.5722769806 0.7063402358
C 1.6976640194 0.0656623522 0.4749749605
C 0.7200912043 -0.4012840509 -0.6077673654
C -0.7580605194 -0.2716152474 -0.2031725390
C -1.6755417280 -0.5296946921 -1.4186343078
C -3.1188809587 -0.3941103595 -1.0094521709
O -3.8509005964 0.4191877753 -1.5425576341
O -1.3622759756 0.3569537014 -2.4698879876
O -1.1229751979 -1.2417158105 0.7796769500
O 1.0079808142 -1.7400283439 -1.0132356431
O 1.3969965662 -0.6505741673 1.6886654593
O 2.6795329354 1.9705003102 1.6351975568
H 1.8754383957 2.0846583706 -0.2385699177
H 0.6743430077 1.8906685833 1.0621824138
H 2.7081428853 -0.2051846645 0.1353638391
H 0.8864273235 0.2294921237 -1.4872777799
H -0.9496708807 0.7517322651 0.1545808638
H -1.5188799823 -1.5761557975 -1.7316141763
H -3.4755086921 -1.0618092379 -0.2070703876
H -2.1653988774 0.8828132916 -2.6293981816
H -0.4986045792 -1.1401886845 1.5162448497
H 0.7208510872 -2.3206464039 -0.2936252754
H 2.1390777867 -0.5513172036 2.2980838919
H 2.3276890518 1.8603786079 2.5266453407
