41
CONF59
C 0.1741604072 -3.6358891972 -0.2496994960
C -0.3049277055 -2.2706027435 0.0886505330
C -1.5927234515 -1.7957132314 0.1163165768
C -1.5421792616 -0.3909604885 0.4352491053
C -0.1835962322 -0.0372105236 0.5818222774
N 0.5762926620 -1.2044612591 0.3494686503
C 1.9722454033 -1.3372687092 0.4559464987
O 2.4794998574 -2.3652183447 0.8770305047
C 2.7907600402 -0.1951262649 -0.0165034551
C 2.4253601490 0.5453355115 -1.1452281243
C 3.2578519316 1.5464019133 -1.6264062884
C 4.4463653573 1.8089620956 -0.9519370571
C 4.8327489372 1.0850054328 0.1723069026
C 4.0029926429 0.0700160184 0.6268231372
Cl 5.4935012327 3.0859986402 -1.5414082284
C 0.1839533879 1.2370497088 0.9897836494
C -0.8201254305 2.1842685140 1.1859860978
C -2.1722661676 1.8512162723 0.9961773616
C -2.5432902011 0.5570595202 0.6305664995
O -3.2017456386 2.7337214091 1.1644552532
C -2.8756715615 4.0723690736 1.5555987882
C -2.8447222440 -2.5557623529 -0.1632848859
C -3.4141307356 -2.3886009191 -1.5678884072
O -4.5333723916 -2.7322811716 -1.8745564391
O -2.5940985868 -1.8566284316 -2.4951073149
H 0.9895946722 -3.6000916676 -0.9780458186
H -0.6461278485 -4.2123457417 -0.6811919250
H 0.5491039253 -4.1631275160 0.6319405771
H 1.4950522108 0.3324617918 -1.6612544953
H 2.9883656473 2.1134674585 -2.5097470185
H 5.7648954223 1.3086108022 0.6778582223
H 4.2878919548 -0.5155445248 1.4944007014
H 1.2164455966 1.5166082093 1.1577091338
H -0.5337839890 3.1814012260 1.4945016895
H -3.5940637751 0.3088297519 0.5192242964
H -3.8280226837 4.5986594612 1.6263523305
H -2.2415102493 4.5598211317 0.8055110934
H -2.3743445593 4.0884220870 2.5307216174
H -3.6420841370 -2.2675806756 0.5297621930
H -2.7004839450 -3.6332735058 -0.0256977847
H -1.7438109605 -1.6279982527 -2.0755664652
