39
CONF293
C 8.3287141149 -0.5197185613 -2.3037023010
C 7.9189410996 -0.1371321366 -0.8828136003
C 6.4226505379 0.1514115348 -0.7601598045
C 6.0147342976 0.5517019704 0.6588381531
C 4.5203712754 0.8817880121 0.8158795909
C 4.2347513231 1.7495779320 2.0536989638
C 4.6514875792 1.1366284234 3.3908788959
C 3.7194565922 -0.4143430574 0.8176545608
O 2.2805601703 -0.1476973501 0.9110683210
C 1.6581245387 0.1627813349 -0.2278074544
O 2.1639620930 0.1980918463 -1.3282721329
C 0.2001021534 0.4134879879 0.0218807029
C -0.5581592994 -0.6301201287 0.5383414683
C -1.9278867648 -0.4857673681 0.6988578730
C -2.5619177125 0.7146135964 0.3644468217
C -1.7918555430 1.7823824648 -0.1287978557
C -0.4119310540 1.6245471068 -0.3017760665
Br 0.6731463766 3.0654539683 -0.8991074182
Br -2.6192348521 3.4320462823 -0.5541940096
Br -4.4318528729 0.8947217481 0.5850988274
Br -2.8856467035 -1.9741664064 1.3890487431
H 8.0931570198 0.2862130953 -3.0076006254
H 9.4022316222 -0.7224040366 -2.3710508368
H 7.7949054448 -1.4175174792 -2.6347187069
H 8.1878627940 -0.9452029718 -0.1896518720
H 8.4832190230 0.7479150748 -0.5598703243
H 6.1506021257 0.9594337267 -1.4534468489
H 5.8630378135 -0.7357385633 -1.0848392597
H 6.5933418919 1.4368598355 0.9551498551
H 6.2962050390 -0.2469498384 1.3592676594
H 4.2121235437 1.4598592910 -0.0662085975
H 3.1651320926 1.9904053437 2.0799696714
H 4.7604956070 2.7022996427 1.9145971492
H 5.7241016409 0.9201982520 3.4179397341
H 4.4324677931 1.8287165615 4.2097120684
H 4.1150671119 0.2051897165 3.5996693183
H 3.9331350950 -1.0187309532 1.7016656303
H 3.9012813370 -1.0065571995 -0.0815346313
H -0.0761259480 -1.5641120127 0.8012411216
