88
CONF15
C 1.8278901789 0.8807623116 0.6382091344
C 0.3583625654 0.8409678647 0.2149327416
C -0.3703450761 -0.2691972852 0.9599542085
O -1.7453788322 -0.3507123172 0.5071271169
C -2.6316198755 0.4934481971 1.1111920821
O -2.3228855400 1.2835394862 1.9805539179
C -3.9743007349 0.2932695499 0.5576847702
C -5.0108244573 1.0096233330 1.0307153340
C -6.3979375399 0.9491627683 0.6129280166
C -7.3226953090 1.7563683582 1.2889497532
C -8.6716402111 1.7308816933 0.9427207331
O -9.6418238838 2.4444246812 1.5829105698
C -9.2385046587 3.2751416357 2.6688046915
C -9.1149718339 0.9172811164 -0.1126848302
O -10.4159270901 0.8151822709 -0.4862046715
C -11.1174282708 2.0307155051 -0.8032895870
C -8.1798706587 0.1031391353 -0.7876556312
O -8.7024414288 -0.6554317110 -1.7860612635
C -7.8092022867 -1.5081423444 -2.4947332979
C -6.8391629628 0.1154029443 -0.4250536696
C 0.2419037169 -1.6464163627 0.7209518431
O -0.3570036933 -2.6133717667 1.5833436506
C -1.3459292302 -3.4290933037 0.9667391557
C 1.7332132477 -1.6204398938 1.0663410479
C 2.4693106388 -2.9121742004 0.7670561553
O 3.6054354413 -3.1304272585 1.1289529166
O 1.7678719460 -3.7634661317 -0.0106745035
C 2.4584106457 -4.9842763016 -0.3514671278
C 2.5155419257 -0.4700330228 0.3946241289
C 2.7198295176 -0.6948117154 -1.1049521625
C 3.4999181068 0.4549124866 -1.7375543995
N 2.8187615737 1.7409616476 -1.4794959565
C 3.5750633830 2.8321484795 -2.1127244588
C 4.9998153484 3.0487449381 -1.5448766135
C 5.6271041061 1.7321745980 -1.2214178027
C 4.9294155175 0.5555295981 -1.2877766705
N 5.7451731225 -0.4912306194 -0.8786709409
C 6.9690285986 0.0199638755 -0.5006171075
C 6.9332598741 1.4205916204 -0.7189263710
C 8.0794852209 2.1695378589 -0.4212866787
C 9.1968938340 1.5312856689 0.0818680307
C 9.2006762181 0.1379688059 0.2986720602
O 10.3726521456 -0.3580159756 0.8066021364
C 10.4325213409 -1.7543054826 1.0591426030
C 8.0863664349 -0.6437279836 0.0086219115
C 2.6294320400 1.9913536139 -0.0441081358
H 1.8588023129 1.0850193526 1.7184931437
H -0.1241608398 1.7956357922 0.4479487754
H 0.2670251008 0.6854389381 -0.8652484095
H -0.3749957722 -0.0651401428 2.0375324500
H -4.0750333076 -0.4483288188 -0.2272973930
H -4.7805148039 1.7176696992 1.8256306151
H -6.9714151922 2.3818812023 2.0998235304
H -10.1516785649 3.7460621733 3.0348317850
H -8.7852496962 2.6835709256 3.4741828076
H -8.5347317038 4.0498823094 2.3390801226
H -10.4417412634 2.7553403587 -1.2712332508
H -11.8958144551 1.7458119876 -1.5145214442
H -11.5667529788 2.4719455877 0.0897589555
H -7.3443031825 -2.2438276222 -1.8254773432
H -7.0276293205 -0.9318483311 -3.0072506882
H -8.4212777542 -2.0262387740 -3.2339430539
H -6.1263694947 -0.5012867720 -0.9546770120
H 0.0915571070 -1.9296986980 -0.3307532053
H -1.6724074738 -4.1452341791 1.7249394890
H -2.2089490028 -2.8407853088 0.6310675585
H -0.9232059542 -3.9789555345 0.1133413559
H 1.8087161185 -1.4854144389 2.1537572189
H 1.7572895778 -5.5543127353 -0.9607398592
H 2.7227545148 -5.5349374385 0.5545032276
H 3.3692346953 -4.7637132676 -0.9147369651
H 3.5047247099 -0.4407232113 0.8694636717
H 1.7597713185 -0.7799346220 -1.6236413414
H 3.2521938947 -1.6370512092 -1.2869121301
H 3.4770808725 0.3082166655 -2.8291048914
H 2.9909316513 3.7556747809 -2.0220521280
H 3.6468493256 2.5951513836 -3.1818109896
H 4.9664488902 3.6795079740 -0.6446065009
H 5.5918517005 3.6075813193 -2.2811571104
H 5.4270215953 -1.4216665746 -0.6636353321
H 8.0931550561 3.2437081614 -0.5798142762
H 10.0979878729 2.0833322351 0.3246512032
H 11.4281551637 -1.9448732286 1.4628895867
H 9.6765660038 -2.0610652064 1.7950152057
H 10.2978285810 -2.3349161995 0.1360038138
H 8.0700938142 -1.7146831133 0.1680991393
H 2.0961117313 2.9456673819 0.0561416438
H 3.5906359359 2.0913265349 0.4920910787
