33
CONF4
C -3.3694124797 0.8099737995 2.8692639012
C -2.6907056044 0.5562285724 1.5783367069
N -1.7438312579 -0.3130784781 1.4024624678
N -1.4238264471 -0.2474321184 0.0542650685
C -2.1301929736 0.7343697697 -0.6238542767
O -2.0417225862 1.1188503954 -1.7693671077
N -2.9928023365 1.2110149321 0.3900542982
C -3.9234024523 2.2542648183 0.1535545791
F -5.1851394594 1.8578745402 0.5015721311
F -3.6362789811 3.3430561056 0.9317392026
C -0.3130532438 -0.9469497429 -0.4543066376
C -0.4281563722 -1.7684558206 -1.5812992714
C 0.6934435233 -2.4205991048 -2.0790490749
C 1.9147251509 -2.2606067484 -1.4437042165
C 2.0462434075 -1.4823210820 -0.2821804829
C 0.9088301467 -0.8349291563 0.1988415881
N 3.2756996345 -1.3525951959 0.3915320719
S 3.9908503313 0.2138766648 0.5404217412
O 5.3543569723 -0.0533895745 0.9960772788
O 3.0609702540 1.0495624653 1.2990184328
C 4.0441681840 0.8484842183 -1.1545893688
Cl 3.3172532661 -3.0739858885 -2.1093006040
Cl -1.9647904228 -2.0452647509 -2.3403236682
H -4.4384013281 0.5878295606 2.7978029920
H -2.9171199128 0.1705193662 3.6278088678
H -3.2641423220 1.8575500944 3.1666256655
H -3.8939452899 2.5350631680 -0.9046878379
H 0.6102931156 -3.0540024602 -2.9530449613
H 0.9803464010 -0.2287335147 1.0934361775
H 3.9888838032 -2.0009444139 0.0680346628
H 4.4612008533 1.8564670037 -1.0948077197
H 3.0252200421 0.8813517945 -1.5473211212
H 4.6844396857 0.1969514690 -1.7522902832
