57
CONF55
C -4.1139968539 -1.8747632980 -2.3497234336
C -4.8249667032 -0.6221567441 -1.8410415967
C -3.8024133484 0.4162673074 -1.3907385131
N -2.9441778554 -0.1255660104 -0.3208606273
C -2.1866212031 -1.2746480366 -0.8386940182
C -3.1405968734 -2.3812352058 -1.2884336602
C -2.1505121929 0.9431911458 0.3462690119
C -1.2475424576 1.7388352490 -0.6189744210
C -0.2269394829 2.6590113494 0.0568568453
N 0.5328640028 1.9532173162 1.0903445911
C -0.3744944980 1.4057417434 2.1006784576
C -1.2628563913 0.3463690983 1.4592757012
C 1.5800963655 2.7902214413 1.6696240338
C 2.6436842956 1.9530210242 2.4021833995
C 2.8296104058 0.5666397161 1.7655899837
C 2.8626864308 0.6284189642 0.2562025165
O 3.4552522835 1.5405285846 -0.3153443055
C 2.2190052852 -0.4561234383 -0.5436615416
C 1.9787997842 -0.2250585915 -1.9047452052
C 1.3706841623 -1.1871383255 -2.6973449174
C 1.0283992054 -2.3953747603 -2.1086334632
C 1.2703526264 -2.6781616159 -0.7753170078
C 1.8606089240 -1.6923376760 0.0079563318
F 0.4252741523 -3.3386499220 -2.8714561553
C -3.1844823086 1.8790797079 1.0329393130
O -3.1176493173 3.1072699688 0.9777034097
N -4.1325189636 1.2315820077 1.7478465254
H -4.8378839908 -2.6535489880 -2.6153177010
H -3.5551947291 -1.6262308993 -3.2630083829
H -5.4579905791 -0.1874178932 -2.6231282694
H -5.4746716537 -0.8795108465 -0.9940693270
H -4.3143944470 1.3115504402 -1.0190400847
H -3.2025215747 0.7261187260 -2.2672321429
H -1.5339167481 -1.6721075675 -0.0594399368
H -1.5424293206 -0.9883891906 -1.6929921636
H -2.5490452437 -3.2213030485 -1.6713384867
H -3.7001420434 -2.7429513427 -0.4157718817
H -0.7018931961 1.0059630030 -1.2261169931
H -1.8567910006 2.3437897486 -1.2969435407
H 0.4822304258 3.0132371142 -0.7025533917
H -0.7394177194 3.5419546363 0.4746524506
H 0.2141516744 0.9432961383 2.8998808557
H -0.9814689472 2.2059469214 2.5694619516
H -0.5934112560 -0.3992020601 1.0205453301
H -1.8817487447 -0.1532228896 2.2116533089
H 2.0586406769 3.3229547472 0.8421296704
H 1.1674417420 3.5565270822 2.3526478177
H 3.5849406089 2.5108074296 2.3911264288
H 2.3776936694 1.8086825401 3.4547178136
H 3.7810849914 0.1300010898 2.1014955431
H 1.1573052300 -1.0132735360 -3.7464274443
H 0.9928527767 -3.6422512427 -0.3634650696
H 2.0504780208 -1.9067946979 1.0534933046
H -4.8873392703 1.7660888823 2.1496450188
H -4.2602638941 0.2421053389 1.5902021742
H 2.0373664306 -0.1055323750 2.0983775821
H 2.2602136112 0.7317795658 -2.3310568620
