27
CONF1
C -2.0865302332 -1.1138328334 -0.2273200762
C -1.4442928644 -0.0043456197 -1.1007871681
C 0.0214693779 -0.5129424228 -1.0316165406
C 0.1490461273 -1.0548851917 0.4407937476
C -1.2572999570 -0.7877647278 1.0427586326
C -1.5073029412 0.7138270691 1.1711438162
C -1.6280978168 1.2141518352 -0.1985227984
O -2.7840183979 1.1484824862 0.6607174267
C 1.4842512598 -0.4273199208 0.9291034858
C 1.4038443588 1.0907272626 0.9989744397
C 1.2937793680 1.5537755657 -0.2521186921
C 1.2981784665 0.3583914845 -1.1941048621
C 2.3361955719 -0.5288807868 -0.3980855063
Cl 3.9646759143 0.1956291272 -0.2727534491
Cl 2.5377449103 -2.1918436133 -1.0296246444
Cl 1.7227188236 0.7215161871 -2.8758126883
Cl 1.2062408125 3.1838798717 -0.7511533901
Cl 1.4867994309 2.0027163153 2.4395961781
Cl 2.1809884653 -1.2152615685 2.3553546380
H -1.8801308768 -2.1158887423 -0.6114255141
H -3.1574826151 -0.9840612235 -0.0864743754
H -1.8278785472 0.0960068693 -2.1176208415
H 0.1212715985 -1.3314618381 -1.7483360871
H 0.3065885592 -2.1360133171 0.4350253382
H -1.4760949212 -1.3827068326 1.9311852923
H -1.1220278424 1.2955561098 2.0008134460
H -1.3426360316 2.2125479547 -0.5097102073
