53
CONF304
C 0.0555341217 -0.3066711063 -4.3390626665
N 0.9978174874 -1.1724391908 -3.6209341540
C 2.2689334246 -1.2007648517 -4.3678987373
C 3.2747888827 -2.1527478707 -3.7375583464
C 3.5435763475 -1.7410815050 -2.2946147797
C 2.2250252558 -1.6384402954 -1.5334415575
C 1.2227898152 -0.7126183468 -2.2331467438
C -0.0951619127 -0.6509942800 -1.4539874105
C 0.1092466999 -0.1784639364 -0.0107593254
N -1.1510584615 0.3042522718 0.5692826651
C -1.7800331997 1.4245208192 -0.0194163236
C -1.0970219350 2.3104058684 -0.8612937854
C -1.7660782733 3.3805963616 -1.4497002706
C -3.1132187946 3.6082581783 -1.1857786475
C -3.7957413343 2.7556732188 -0.3212786351
C -3.1380639965 1.6642856504 0.2370990941
S -4.0302870864 0.5075254597 1.2569862092
C -2.7313698631 0.1381605405 2.4079872559
C -1.4086335497 0.0643239778 1.9285027844
C -0.3948671975 -0.2607629292 2.8362102562
C -0.7296534575 -0.5634165278 4.1516412302
C -2.0351817885 -0.5148293510 4.6252096278
C -3.0366888877 -0.1338117796 3.7384718897
S 0.5946315013 -0.9974230291 5.2869496651
O 0.0447891309 -1.9195488936 6.3081497878
O 1.7630387725 -1.4368859643 4.4886240749
C 1.0156743041 0.5575725491 6.0952838422
H -0.9605940691 -0.4141259326 -3.9519321055
H 0.0378177283 -0.5993273530 -5.3933657711
H 0.3386368978 0.7627658163 -4.2859071377
H 2.0471057201 -1.5109845789 -5.3954826771
H 2.7124473328 -0.1842774129 -4.4214984747
H 4.1981930134 -2.1458539919 -4.3279383692
H 2.8725691749 -3.1738787844 -3.7642911908
H 4.2141685701 -2.4530846075 -1.8003601033
H 4.0442494360 -0.7629496688 -2.2838823069
H 2.4117538240 -1.2684508875 -0.5197115091
H 1.7683185687 -2.6338666861 -1.4398552052
H 1.6522624198 0.3146794584 -2.2513909157
H -0.5674753480 -1.6411550350 -1.4490971887
H -0.7851407738 0.0332979618 -1.9501621844
H 0.8989519344 0.5872500715 0.0465925697
H 0.4364923897 -1.0207424122 0.5998153540
H -0.0440994507 2.1623919084 -1.0713680784
H -1.2200993376 4.0438909026 -2.1128344245
H -3.6320165389 4.4450976038 -1.6409251733
H -4.8440358532 2.9226816808 -0.0941319323
H 0.6433579633 -0.2861331167 2.5305077266
H -2.2688539872 -0.7601676981 5.6546768643
H -4.0663488094 -0.0712417765 4.0754441965
H 1.8303169238 0.3343511936 6.7899834592
H 1.3358686076 1.2657463780 5.3279863753
H 0.1333677690 0.9194117492 6.6276015097
