43
CONF7
C -4.1452832627 -2.0164669811 0.2900287644
N -2.7999960700 -1.8394926429 -0.2562408090
C -1.7467083277 -2.2847275193 0.6832751681
C -1.6502928550 -1.1641545263 1.7533595628
C -2.1205358118 0.1034868340 0.9991791772
C -2.4504308668 -0.4138821983 -0.4259434746
C -1.2530882361 -0.3834273998 -1.3888345211
C -0.0437242424 -1.1731943570 -0.8652840096
C -0.4592478698 -2.4483580570 -0.1304061936
O 0.6765392584 -0.2663770327 0.0278152876
C 2.0044930017 -0.4894465700 0.1602940252
O 2.5860950867 -1.4264637188 -0.3441255011
C 2.6584614912 0.5513749544 0.9959962931
C 4.0118734945 0.3844271437 1.3023733038
C 4.6722073587 1.3316188016 2.0727795956
C 3.9870660816 2.4520560905 2.5382205590
C 2.6396193030 2.6237230438 2.2311746147
C 1.9726214444 1.6769097179 1.4629370964
C -0.8558969502 1.0262496183 -1.7736619193
O -1.4028319822 2.0376004319 -1.3995305109
O 0.1965933954 1.0130528365 -2.6220453198
C 0.6800961865 2.3157011076 -3.0124935067
H -4.3376228426 -3.0852443828 0.4302109833
H -4.3197103286 -1.5093513077 1.2555833938
H -4.8790912490 -1.6363485099 -0.4282056092
H -2.0196797923 -3.2536972116 1.1155241422
H -2.3088470390 -1.3869142140 2.5976969226
H -0.6364278046 -1.0641589789 2.1482837096
H -3.0202485246 0.5253190487 1.4551726794
H -1.3720249969 0.8946661134 0.9805192126
H -3.2800438406 0.1331220550 -0.8833630369
H -1.5704052271 -0.8912739034 -2.3097415991
H 0.6361661316 -1.4164498604 -1.6847227218
H -0.6274580948 -3.2265413181 -0.8832117141
H 0.3729129943 -2.7766013204 0.5001709603
H 4.5248378463 -0.4936771189 0.9258686252
H 5.7223723874 1.1983900995 2.3112793253
H 4.5043898813 3.1927997172 3.1397403153
H 2.1070212258 3.4980589653 2.5908474612
H 0.9253183753 1.8097394430 1.2181469094
H 1.5182527642 2.1257366587 -3.6823679863
H -0.1061781106 2.8777767358 -3.5227910321
H 1.0088373103 2.8744397282 -2.1319822941
