21
CONF66
C 0.9866240068 -1.0392481590 -0.5187887679
C -0.0112568055 0.0180090257 -0.0171481339
C 0.5187536800 1.4356661768 -0.2889285496
O 1.9303583782 1.5770811883 -0.0730320124
C -1.3553366467 -0.0897643785 -0.7578598738
O -2.2124968138 -1.1261489475 -0.2564064563
C -0.2030012945 -0.2205486570 1.4899043454
O -1.2904991903 0.5219228998 2.0485008786
O 1.4619114144 -0.7869385571 -1.8441555365
H 0.5011177588 -2.0220802566 -0.5477053302
H 1.8301932069 -1.1133095923 0.1827037872
H 0.3608373347 1.6946439015 -1.3418963527
H -0.0462680904 2.1537501925 0.3213631648
H 2.1084172832 1.4699098603 0.8698396355
H -1.9220555572 0.8390042099 -0.6287660591
H -1.1652783824 -0.2217913691 -1.8320361242
H -1.8057077018 -1.9807303951 -0.4466211723
H -0.3351373951 -1.2955837682 1.6790481320
H 0.6965354111 0.0966071389 2.0306774498
H -2.0998545909 0.1130835804 1.7123469049
H 2.0521443069 -0.0235337921 -1.7810399134
