70
CONF50
C -0.3542461364 -1.7814702309 1.7588931983
C -1.3492143366 -2.6900045489 2.5094839288
C -1.4391975791 -2.2403970235 3.9305919693
C -1.7653591140 -2.8473415480 5.1149681810
N -1.6854345884 -1.9114299974 6.1443838568
C -1.2932267033 -0.6941293821 5.6319139368
C -1.0418214318 0.5521915214 6.2054675275
C -0.6315287308 1.5639251467 5.3437290303
C -0.4689487949 1.3651797201 3.9571241648
C -0.7277028713 0.1271985024 3.3820629560
C -1.1390535522 -0.8877884164 4.2453034432
C -0.6131700180 -0.2518755885 1.9203537377
C 0.4980283348 0.5206185864 1.1983057013
C 0.6175115521 0.0881842787 -0.2660471291
C 0.8324254153 -1.4503918602 -0.3131288330
N -0.2442779132 -2.1729084635 0.3471272950
C -1.4969708377 -2.1644839104 -0.4138532970
C -1.9635788464 -3.5297134789 -0.8393221911
C -1.3196743711 -4.6708008191 -0.6198475714
C 1.7831244809 0.7832269678 -0.9398587066
O 2.7492431047 1.1323377621 -0.2577133453
N 1.7438650356 0.9529857651 -2.3195789422
C 0.5977885438 0.5305899619 -3.1534263072
C -0.2963114214 1.6972242143 -3.5775355318
C -1.1509717411 2.2825713913 -2.4575636803
N -2.0819789517 1.3201077042 -1.8548721664
C -2.6973979337 1.8952866514 -0.6613038201
C -3.1150328559 0.8836171504 -2.7901256921
C 2.8168289010 1.5347773067 -3.1053365249
O 2.7086905368 1.5687913215 -4.3253798281
N 3.8705916063 2.0288453575 -2.4265203544
C 5.0272635485 2.5438435964 -3.1490688112
C 5.9502005678 1.4371264050 -3.6545311934
H 0.6366257147 -1.9678004202 2.2037657791
H -2.3382965844 -2.6396098635 2.0355376688
H -1.0149673950 -3.7284196837 2.4177992667
H -2.0505312169 -3.8676757137 5.3287687962
H -1.8540055952 -2.1110575718 7.1138879548
H -1.1507844356 0.7348755411 7.2696022373
H -0.4214840159 2.5460649043 5.7554156596
H -0.1319911774 2.1994921054 3.3508196810
H -1.5765356166 -0.0227137750 1.4342692810
H 0.3088717914 1.5989875777 1.2447905568
H 1.4495034180 0.3513351055 1.7152621437
H -0.3237121252 0.3202702619 -0.7754827317
H 0.9235968722 -1.8091392649 -1.3454760054
H 1.7791101733 -1.6810474796 0.1953317387
H -2.3094432055 -1.6731828932 0.1453615031
H -1.3951411830 -1.5392517181 -1.3153284897
H -2.9090507174 -3.5364436420 -1.3832176407
H -0.3752601755 -4.6750122745 -0.0845541744
H -1.7184996929 -5.6166109664 -0.9706202161
H 0.0156032766 -0.2143371801 -2.6134122789
H 1.0117239839 0.0555627879 -4.0448005250
H 0.3328615514 2.4899314590 -3.9936233347
H -0.9300051437 1.3563589731 -4.4042610964
H -1.6922208807 3.1704140757 -2.8426561353
H -0.4903575345 2.6464077045 -1.6576264605
H -3.3036370996 2.7953699974 -0.8817086512
H -1.9220094135 2.1777997103 0.0593254692
H -3.3500342276 1.1553684599 -0.1851247919
H -3.7946040661 0.1927291945 -2.2805214974
H -3.7152539495 1.7260746815 -3.1867832603
H -2.6750336128 0.3490650026 -3.6364551021
H 3.8883199136 1.8610011072 -1.4237926271
H 4.6678020696 3.1440902670 -3.9906732183
H 5.5643262632 3.2100598960 -2.4654933651
H 6.3247236173 0.8314855983 -2.8236458399
H 6.8078790368 1.8674466200 -4.1813703835
H 5.4114470023 0.7862170868 -4.3480041871
