64
CONF21
C 3.2005097781 4.0537929276 0.0167301297
C 3.6726789039 2.8084997973 -0.7028616005
O 4.0912686399 2.8732250141 -1.8660105764
N 3.6238314603 1.6295741792 -0.0210545483
C 3.0398774902 1.4677216459 1.3134845718
C 3.8867735816 0.4978225358 2.1448069003
N 4.0670662234 -0.7916328813 1.4689448393
C 4.7626576935 -0.5366003443 0.1971239365
C 3.9402834991 0.3752559023 -0.7116893901
C 2.9758433196 -1.6847986664 1.4467933380
C 1.9100802244 -1.5882775510 2.3613874432
C 0.8458468159 -2.4846583402 2.3484039818
C 0.7977680406 -3.5026175500 1.4015833084
O -0.2264838900 -4.4216426479 1.2754273153
C -1.5639200577 -4.0235365380 1.5996970619
C -2.1868711311 -3.0334939474 0.6279063579
C -1.8751198730 -3.2408743618 -0.8475438623
O -2.0165568181 -1.9138329012 -1.3808875817
C -1.5357280382 -1.0270374311 -0.3815153073
C -0.0244729330 -0.7627672971 -0.5823768272
N 0.2404319990 0.0976145958 -1.7204344528
C 0.4449495225 1.4609248595 -1.6817690451
C 0.5660770873 1.8546486064 -2.9894599364
N 0.4365299018 0.7691594829 -3.8313998778
C 0.2379732977 -0.2666952556 -3.0345375031
O -1.6887656135 -1.6989021906 0.8682308815
C -2.3533930622 0.2558305260 -0.4405126196
C -3.1616380448 0.5055314281 -1.5527312466
C -3.8911416861 1.6790978529 -1.6905240967
C -3.8111900039 2.6299411708 -0.6835271462
Cl -4.7250414135 4.1207909542 -0.8225756358
C -3.0185553404 2.4347997077 0.4382300560
C -2.2921449107 1.2526489429 0.5387818022
Cl -1.2732224651 1.1012729628 1.9662680391
C 1.8670197131 -3.6500092701 0.5213634888
C 2.9346776852 -2.7633425243 0.5417367691
H 2.1577126721 3.9584217213 0.3367701473
H 3.2864479908 4.8913029044 -0.6748742528
H 3.8057410509 4.2620747964 0.9045430343
H 2.9941609123 2.4295591261 1.8240371768
H 2.0131622419 1.0808976411 1.2245439066
H 3.4449913612 0.3669580961 3.1338571832
H 4.8836201399 0.9292134721 2.2942549130
H 5.7165576155 -0.0525665040 0.4370316527
H 4.9989564061 -1.4658477962 -0.3213641333
H 3.0047187720 -0.1315694736 -0.9949610647
H 4.4903464099 0.6136811892 -1.6231085421
H 1.8784328307 -0.7938162874 3.0959866055
H 0.0391493201 -2.3395187935 3.0568409246
H -1.6348828484 -3.6293574609 2.6204337979
H -2.1444769537 -4.9498162987 1.5581637059
H -3.2738724926 -3.0402754469 0.7988400574
H -0.8555425135 -3.6177091924 -0.9958833031
H -2.5909545096 -3.8858736831 -1.3595237356
H 0.3851316457 -0.3008867639 0.3161758531
H 0.4791449600 -1.7232948746 -0.7205173237
H 0.4963110540 1.9999585877 -0.7470478528
H 0.7490011849 2.8510103199 -3.3676813561
H 0.0952129765 -1.2948681908 -3.3414068915
H -3.2165231589 -0.2422124662 -2.3337425069
H -4.5076109680 1.8465922144 -2.5656231947
H -2.9583818859 3.1850499900 1.2167509107
H 1.8468884705 -4.4561280867 -0.2059631735
H 3.7324989436 -2.9221322412 -0.1722772117
