31
CONF2
C 3.9956731651 1.5080038422 1.4752875581
O 3.1686392464 0.4647941254 0.9102325962
C 2.2504619952 0.8965851196 0.0296521617
O 1.9793792147 2.0514979533 -0.1898940414
C 1.5054329184 -0.2574073323 -0.5718911029
C 2.1096101921 -1.2761237629 -1.3090665971
C 1.3750132593 -2.3569929888 -1.7879473752
C 0.0142753954 -2.4155088000 -1.5547723653
C -0.6010586615 -1.3883333393 -0.8382164791
C 0.1359068297 -0.3150511252 -0.3431969399
O -1.9495765775 -1.5260250135 -0.6368336617
C -2.6535299139 -0.4529899593 -0.1259991795
C -2.9831986806 0.6430328981 -0.9270587922
C -3.7483130598 1.6835308120 -0.4126373021
C -4.1842624658 1.6058075991 0.9048798520
C -3.8744867318 0.5177544101 1.7130776549
C -3.1028832778 -0.5099831291 1.1862682210
Cl -5.1501482231 2.9104031541 1.5521594795
Cl -2.4410117156 0.7076209502 -2.5772327651
N 3.5280317839 -1.1881759371 -1.6707226452
O 4.1009581241 -2.2279255265 -1.9761836507
O 4.0406387984 -0.0737161223 -1.6736875776
H 4.5528075315 2.0058632030 0.6776644318
H 4.6720622428 1.0000314703 2.1614235989
H 3.3782920125 2.2389130140 2.0029249703
H 1.8799113919 -3.1248958388 -2.3611029762
H -0.5883371063 -3.2330643125 -1.9326445351
H -0.3404799255 0.4762430831 0.2242312745
H -4.0009182162 2.5332743360 -1.0341586349
H -4.2281387375 0.4768186335 2.7358568189
H -2.8407514064 -1.3739814163 1.7870880067
