32
CONF8
C -1.7207208971 -2.7086202666 -1.8478639948
C -1.5247068032 -1.5260349284 -0.9513293526
C -2.5679895305 -0.9759604757 -0.2194377844
C -2.2842029569 0.1347057270 0.5861610282
N -1.0519589064 0.6469485546 0.6501745445
C -0.1062195557 0.0408839949 -0.0975616462
N -0.2788350089 -1.0193054618 -0.8959646904
N 1.1365486135 0.6215141503 0.0187718638
C 2.3731274250 0.3279677884 -0.5617148224
C 2.6187486930 -0.7334235176 -1.4461481541
C 3.9017286337 -0.9230120204 -1.9560930427
C 4.9545921725 -0.0821604365 -1.6092080321
C 4.7094420146 0.9726876096 -0.7295682482
C 3.4393183642 1.1778897155 -0.2121439384
C -3.3464053613 0.7681471487 1.3873092606
C -3.3234585699 2.2699523421 1.6089641167
C -3.0093767420 1.3585668114 2.7454415539
H -2.7450521225 -3.0820029143 -1.7989190342
H -1.4911551295 -2.4327663552 -2.8828200738
H -1.0300882729 -3.5104191100 -1.5673427336
H -3.5688514239 -1.3890574204 -0.2675252558
H 1.1347864178 1.4140474782 0.6455433510
H 1.8163262058 -1.3982023951 -1.7284717983
H 4.0717093097 -1.7502492171 -2.6391467937
H 5.9479958892 -0.2430138530 -2.0146900336
H 5.5129653083 1.6440529795 -0.4420845834
H 3.2613483194 2.0035213382 0.4718531385
H -4.3231534087 0.3067821894 1.2879438758
H -2.4985758623 2.8051574618 1.1510243084
H -4.2838063303 2.7740706208 1.6002513950
H -3.7515817704 1.2291298910 3.5257027291
H -1.9724987036 1.2782024596 3.0537366331
