54
CONF47
C -3.9411139996 -2.9068390231 2.9237634327
C -4.0460534914 -1.3930875552 3.1039649721
C -4.2653975488 -0.6663307702 1.7337763224
N -2.9449802548 -0.5835837646 1.1215806189
C -1.8457507673 -0.2068908227 2.0315481202
S -2.4066102155 -0.6910038767 3.7101314369
C -0.9166006317 -1.1659421189 1.2202834095
C -2.1842665814 -1.5029009195 0.4301338270
O -2.4713432086 -2.2801379851 -0.4623822783
N 0.1497784900 -0.5741402747 0.4632772257
C 1.2115428671 -0.0548146751 1.1297920170
O 1.2892863238 -0.0528579651 2.3488955122
C 2.2964029349 0.6392049166 0.2881906888
C 1.9282784408 2.1155025494 0.1580206973
C 2.5073351289 3.0370144449 1.0303930084
C 2.1547923434 4.3807921402 0.9648435811
C 1.2238959635 4.8150682485 0.0265657445
C 0.6431486297 3.8977954801 -0.8441300234
C 0.9894439783 2.5522230973 -0.7786507366
C 2.5437710893 0.0549462284 -1.0839102907
O 1.7015158735 -0.3691418954 -1.8426461042
O 3.8684266996 0.1077600607 -1.3730163389
C 4.2719021967 -0.2769784020 -2.6651078876
C 3.9289640981 0.5029130404 -3.7582943757
C 4.4041053059 0.1334660135 -5.0117930760
C 5.2091511944 -0.9939480938 -5.1552713435
C 5.5422970801 -1.7578434436 -4.0411378072
C 5.0711709773 -1.4016292824 -2.7805862805
C -5.4031397914 -1.3104423472 0.9246588339
O -6.5364590861 -1.1380096187 1.3048757373
O -5.1327180106 -2.0546844105 -0.1463298328
C -5.1268532689 -1.0346887067 4.1172220184
H -3.1842505235 -3.1841488841 2.1843356207
H -4.9064112734 -3.3170470437 2.6038672997
H -3.6646998026 -3.3762572823 3.8708702893
H -4.6002930431 0.3561078266 1.9415574799
H -1.5590262386 0.8475058446 1.9992616625
H -0.5802456639 -2.0059268606 1.8405335776
H 0.1796633619 -0.6405884316 -0.5482990772
H 3.2142719020 0.5654566395 0.8733550504
H 3.2273683934 2.6978216214 1.7681846904
H 2.6105165528 5.0890411862 1.6491095420
H 0.9515052694 5.8639985217 -0.0259679513
H -0.0838678340 4.2287861515 -1.5786732813
H 0.5315266490 1.8439176426 -1.4619789299
H 3.3024336082 1.3780064580 -3.6253462246
H 4.1444998600 0.7313488856 -5.8790189094
H 5.5774643682 -1.2755780942 -6.1358276533
H 6.1706528514 -2.6356066260 -4.1489788702
H 5.3171249907 -1.9797726673 -1.8969039267
H -4.1670241730 -2.1534538712 -0.3490354742
H -5.2063456050 0.0476413451 4.2449577062
H -4.8972965530 -1.4826836507 5.0884774489
H -6.0914905391 -1.4193599856 3.7751436110
