47
CONF66
C -7.3606175509 -2.3485610172 -0.6587496848
O -6.2972267997 -2.8596522631 0.1929942906
P -5.2809237922 -1.8414400153 0.8895189697
S -5.9906271552 -0.4124442088 1.9866284412
O -4.3306588157 -2.8267621930 1.7077764486
C -3.6954423725 -3.9633347778 1.0439998173
O -4.4338431594 -1.3659240115 -0.4226718695
C -3.5829658010 -0.2583127178 -0.3793897688
C -2.3776719181 -0.3245764050 0.3087893184
C -1.5272588907 0.7747849531 0.2972272279
C -1.8770006106 1.9215576637 -0.4196955667
C -3.0890041353 1.9679802062 -1.1145403844
C -3.9514840606 0.8779345269 -1.0851453424
S -0.8586742092 3.3933712617 -0.4329120508
C 0.7890009344 2.7250372844 -0.2381914963
C 1.5779007677 3.1616790124 0.8264468102
C 2.8798031514 2.6901271704 0.9677853798
C 3.3699261744 1.7764078608 0.0470411746
C 2.5981198551 1.3326181613 -1.0227172600
C 1.3058410917 1.8185727072 -1.1682564956
O 4.6874292950 1.3488846503 0.1978769865
P 5.0651125597 -0.2166643800 0.4782519389
S 3.8239586755 -1.1794868636 1.6094964869
O 6.5775514771 -0.0385411179 0.9616092963
C 6.8547789092 0.5678219555 2.2555651300
O 5.2505561840 -0.8973182627 -0.9512805591
C 6.1242909193 -0.2904837461 -1.9537194555
H -8.0158904429 -1.6911240151 -0.0813638740
H -7.9099709411 -3.2249858252 -1.0008112703
H -6.9342701750 -1.8129075428 -1.5110983669
H -4.4487654220 -4.7128299110 0.7935352336
H -3.1694587916 -3.6308861595 0.1452101344
H -2.9862438095 -4.3625699985 1.7681541868
H -2.1076856292 -1.2216739818 0.8561862054
H -0.5917715728 0.7316259916 0.8443372776
H -3.3613788397 2.8532384397 -1.6803833492
H -4.8971543335 0.9004089594 -1.6159839595
H 1.1745320202 3.8593204023 1.5525213513
H 3.5052098425 3.0120977882 1.7933813128
H 3.0068566919 0.6274875166 -1.7389624083
H 0.6974531138 1.4884028045 -2.0037622033
H 6.4735576435 1.5920697799 2.2783724308
H 6.4004236994 -0.0290396936 3.0506813825
H 7.9397279212 0.5664765203 2.3539292051
H 7.1654700124 -0.3738664403 -1.6360178138
H 5.9573194078 -0.8611422504 -2.8664668145
H 5.8511677751 0.7566223719 -2.1081504417
