45
CONF3
C 0.5473746099 -3.4998661460 -0.6682402674
C 1.6188102493 -2.8733194328 0.2332230960
C 2.5006442225 -1.8385427587 -0.4723172911
C 3.3317118706 -0.9839971203 0.4919863629
C 2.5200587036 0.0488450450 1.2869777578
C 1.8682476688 1.1275477011 0.4179126459
C 1.2237546066 2.2364051995 1.2501167624
C 0.6578687832 3.3734870079 0.4182247827
O -0.4479645592 2.9185554889 -0.4222986237
C -1.6855051544 2.9763095418 0.1091565800
O -1.9221495691 3.3843505620 1.2309814668
C -2.7357989561 2.4796691138 -0.8515305672
C -3.6188778275 1.4017928480 -0.2031923714
C -2.8289721124 0.1961853759 0.3123126458
C -2.1018090311 -0.6000496298 -0.7715738765
C -1.2053556926 -1.6871565737 -0.1819404888
C -0.4650293379 -2.4990909297 -1.2433521533
H 0.0046117717 -4.2622638924 -0.0932645365
H 1.0362779957 -4.0271887682 -1.4987775557
H 1.1340425991 -2.4178280847 1.1044426941
H 2.2606407211 -3.6697354734 0.6325074063
H 3.1693580102 -2.3617979045 -1.1683910918
H 1.8843538265 -1.1750910684 -1.0888459823
H 3.8594305717 -1.6445164724 1.1935518539
H 4.1061122078 -0.4499741437 -0.0747978348
H 1.7455918164 -0.4518669464 1.8834907535
H 3.1895340785 0.5384672553 2.0068211540
H 2.6302249140 1.5702526552 -0.2397454853
H 1.1091287725 0.6806809187 -0.2356589071
H 1.9746504156 2.6761415847 1.9203928274
H 0.4322650707 1.8247214519 1.8893600709
H 0.3067064330 4.1955086796 1.0463705009
H 1.3999990553 3.7459746575 -0.2930970924
H -3.3540699329 3.3446569567 -1.1208913523
H -2.2607686397 2.1167767854 -1.7650064280
H -4.3584960833 1.0758287082 -0.9441156276
H -4.1728253969 1.8546797233 0.6261643596
H -2.0934102795 0.5374414832 1.0556837850
H -3.5133293240 -0.4730906097 0.8490375728
H -2.8360856982 -1.0433091744 -1.4588975380
H -1.4743093010 0.0705482747 -1.3734332832
H -0.4824696652 -1.1985591582 0.4844902229
H -1.7993857321 -2.3629331174 0.4501718655
H -1.1965899203 -3.0458195865 -1.8530328952
H 0.0418030381 -1.8088300376 -1.9301151133
