30
CONF25
C 2.5783278686 0.6800042677 -2.3250795611
C 3.0673409277 0.7593206889 -0.8791519658
C 2.7878745893 -0.5108579102 -0.0664537752
C 1.3115502092 -0.9156634447 0.0114646684
C 0.4072672352 0.1542485080 0.6246711587
C -1.0322464441 -0.3116320783 0.8221651924
C -1.7690163766 -0.6651550830 -0.4889704949
C -3.2762662356 -0.3930088290 -0.2246697423
C -3.3528727672 0.1605636004 1.2164925372
C -1.9544626436 0.7309244751 1.4666696337
H 1.4868430611 0.6076135934 -2.3774540161
H 2.8783838945 1.5673242418 -2.8917077339
H 2.9944518899 -0.1996504570 -2.8301059716
H 2.6088792849 1.6248158349 -0.3845770458
H 4.1488825658 0.9438360000 -0.8727748827
H 3.3601648325 -1.3410413073 -0.5026280309
H 3.1707144184 -0.3699573657 0.9535783320
H 1.2298512995 -1.8331893402 0.6101343226
H 0.9441526126 -1.1737087767 -0.9899852851
H 0.3968816354 1.0482078560 -0.0150094567
H 0.8259242130 0.4662963731 1.5927831593
H -1.0256361286 -1.2001649818 1.4725092108
H -1.5803934030 -1.6966008655 -0.8013274979
H -1.3978901431 -0.0152201819 -1.2919897102
H -3.8865567222 -1.2931241156 -0.3448534556
H -3.6570093856 0.3478650918 -0.9351080598
H -3.5398679188 -0.6563770779 1.9241878029
H -4.1527350787 0.8967349228 1.3441178221
H -1.8381049314 1.6902487390 0.9419642874
H -1.7344330523 0.8973476272 2.5267668512
