45
CONF6
C 2.5721118086 2.0313885214 -3.5907835795
C 2.7621570427 1.4494388563 -2.1987885541
C 1.4201315644 1.4129239721 -1.4635800083
O 0.9997956384 2.4015610012 -0.8657566039
N 0.7231562003 0.2571066736 -1.5669409037
C -0.5398675916 0.0767945971 -0.9231808197
C -0.6596330756 0.1567496958 0.6387180262
N -1.6537457928 1.2210274876 0.4626227438
C -1.5817983854 1.2232134384 -0.9255222827
O -2.1840279406 1.8510800933 -1.7633850306
C -2.8229125317 1.2136056852 1.3095597757
C -3.1745481576 -0.3017036675 1.5559815918
S -1.5092295279 -1.1723668889 1.5873599366
C -3.8892746354 -0.5595191573 2.8779625826
C -4.0148676269 -0.8104152189 0.3840051218
C -2.6279592820 1.9935393363 2.6010598367
O -3.5290949324 2.5706987691 3.1682402507
O -1.3626972220 1.9480224727 3.0473719100
O 3.3295803863 0.1422775380 -2.3667093497
C 3.8255552932 -0.4981583057 -1.2551243558
C 4.3993676301 -1.7494456415 -1.4971114141
C 4.9240659149 -2.4830505468 -0.4418320638
C 4.8815312965 -1.9823249265 0.8602252882
C 4.3063855843 -0.7377530114 1.0908199785
C 3.7733100209 0.0141381155 0.0425933554
H 2.1216498150 3.0238824916 -3.5136313139
H 3.5407885865 2.1196251139 -4.0884865287
H 1.9177310771 1.3886977829 -4.1865263414
H 3.4370400340 2.0845499156 -1.6123278778
H -1.0114964945 -0.8351744387 -1.2993483374
H 0.2555793668 0.4596763521 1.1537105586
H -3.6572108098 1.6865495445 0.7823693785
H -4.1032515155 -1.6267947792 2.9822563485
H -4.8417585136 -0.0196358762 2.8880092848
H -3.2938126963 -0.2419142062 3.7377566552
H -3.5393774033 -0.6075675223 -0.5796225641
H -4.1617311667 -1.8899606987 0.4702176115
H -4.9954483686 -0.3207683672 0.3972520236
H -1.3125636209 2.4486830891 3.8805866921
H 4.4268668860 -2.1277352807 -2.5139078456
H 5.3696147073 -3.4533253022 -0.6386293593
H 5.2915560007 -2.5579978581 1.6832048457
H 4.2630951335 -0.3356563363 2.0983805798
H 3.3283905986 0.9787050999 0.2574932660
H 1.1346380518 -0.5165329450 -2.0694518955
