57
CONF66
C -4.3023416984 0.0312233083 -0.9232856259
Si -3.1845521787 -1.4681837664 -0.7950586805
C -3.7355480650 -2.7866922978 -2.0066174241
C -3.1890431885 -2.1372123484 0.9516300140
O -1.6151004318 -1.0471573306 -1.1467501246
Si -0.7978139874 -0.0658832443 -2.1876386182
C 0.9705546580 -0.6475578245 -2.2191672847
C -1.5825529449 -0.0959475679 -3.8785972042
O -0.8772040489 1.4934853870 -1.6497970768
Si -0.4084290201 2.3996251720 -0.3538071662
C -1.2284276011 1.7724179215 1.2006545831
C -0.8542689460 4.1656644086 -0.7305111980
O 1.2343995543 2.3109150168 -0.2137263663
Si 2.3690312149 1.6519722217 0.7848016433
C 3.9461940796 1.4841563589 -0.1925760953
C 2.5864540348 2.7410720221 2.2829232515
O 1.8103607212 0.1806000778 1.2599891361
Si 2.2471108389 -1.2928615054 1.8822010250
C 3.6217886303 -2.0428837288 0.8524650486
C 0.7176086245 -2.3665221971 1.8062021193
C 2.8198145683 -1.0578144798 3.6500789733
H -5.3355493601 -0.2448513994 -0.6823538393
H -3.9917973185 0.8163508692 -0.2259385335
H -4.2951993258 0.4519716740 -1.9347791090
H -3.0598027632 -3.6488980972 -1.9796489067
H -4.7447475404 -3.1395200261 -1.7651540116
H -3.7506233913 -2.3978710204 -3.0309304736
H -4.1976947109 -2.4501301569 1.2441144219
H -2.8499635009 -1.3755260889 1.6627146095
H -2.5251473403 -3.0042443708 1.0413678432
H 1.3921094170 -0.6409604653 -1.2084323133
H 1.5864730922 0.0041306101 -2.8483050659
H 1.0377540744 -1.6681944853 -2.6117284839
H -1.5868789179 -1.1124527478 -4.2865925591
H -2.6170955758 0.2622366619 -3.8440891334
H -1.0265064541 0.5455222530 -4.5711291063
H -0.8489155267 2.3011068425 2.0822807096
H -1.0407441620 0.7023305719 1.3362335891
H -2.3115972696 1.9275143557 1.1545432527
H -0.5716043286 4.8227719729 0.0991075691
H -0.3345808408 4.5110334570 -1.6309427397
H -1.9317674670 4.2707116335 -0.8962812116
H 4.2526638287 2.4559726661 -0.5949812760
H 3.8128864759 0.7925983325 -1.0315735724
H 4.7598193075 1.1058828601 0.4356028048
H 1.6499348356 2.8187777025 2.8463062680
H 2.8941241015 3.7513586067 1.9917448914
H 3.3512291311 2.3329591070 2.9531509091
H 3.3314859461 -2.1143973582 -0.2017514358
H 3.8513401719 -3.0539160222 1.2088256013
H 4.5396720150 -1.4484067608 0.9138827640
H 0.3713201455 -2.4723158621 0.7716204171
H 0.9185931894 -3.3683566883 2.2019303488
H -0.0986043246 -1.9275843658 2.3909668796
H 3.7140758752 -0.4252658467 3.6906067694
H 2.0393896872 -0.5824511210 4.2548937434
H 3.0679155131 -2.0203030984 4.1119910516
