38
CONF56
C 3.3325421283 2.2464349959 0.7682496012
C 1.8250663540 2.3196638762 0.5386028725
C 1.4162094438 1.8650149049 -0.8554370238
O 1.8520360645 0.5249755179 -1.1709432114
C 1.0938945361 -0.4893984925 -0.5385271198
C -0.3272590137 -0.5807672962 -1.0736313735
N -1.3973669309 -0.5963675427 -0.3847349884
C -1.3986702585 -0.4555608156 1.0057335350
C -1.4872549100 0.8202548021 1.5735427914
C -1.5826405476 0.9864812074 2.9476420651
C -1.6066209741 -0.1363960927 3.7656237516
C -1.5382818858 -1.4164891081 3.2369500476
C -1.4378473549 -1.5756332787 1.8568509893
C -1.3587042618 -2.9554672706 1.2721869414
F -1.4150217339 -3.9199337648 2.2155258758
F -2.3678313091 -3.2038530165 0.3990966178
F -0.1986797931 -3.1509986157 0.5836340794
Cl -1.7307456453 0.0640652876 5.5065433000
N -0.4596857500 -0.6706308183 -2.4699083704
C -1.6503870967 -0.5858588105 -3.1846132398
C -1.3074432416 -0.7788642687 -4.4876659615
N 0.0606264069 -0.9916014999 -4.6111619518
C 0.5391862915 -0.9183502705 -3.3947235449
H 3.8701755607 2.8383157430 0.0191153874
H 3.5960473803 2.6302884229 1.7581070701
H 3.6887669927 1.2142093462 0.7007359819
H 1.2960560572 1.7370381939 1.3024738559
H 1.4723058057 3.3530441158 0.6489249574
H 0.3266009366 1.9453746515 -0.9901312062
H 1.8981299591 2.4937905249 -1.6111854991
H 1.6074017684 -1.4376968078 -0.7345386377
H 1.0383055698 -0.3583257640 0.5487903084
H -1.4765728153 1.6866941027 0.9205801799
H -1.6378928848 1.9818663149 3.3737277134
H -1.5587301340 -2.2809233685 3.8886760328
H -2.5911008906 -0.3940756459 -2.6957892296
H -1.9593641835 -0.7762526090 -5.3500203656
H 1.5747496449 -1.0340665384 -3.1107677271
