63
CONF161
C -11.2017770030 0.2539421300 1.8448788271
C -9.7755040460 -0.0175433920 1.3707654319
C -8.7812451698 -0.0958367846 2.5304279837
C -7.3611768015 -0.4930348267 2.1189575408
C -6.6756251005 0.5010158783 1.1807589134
C -5.2165392865 0.1430016205 0.9009976722
C -4.5252531569 1.1230457359 -0.0452806773
C -3.0638419396 0.7688513495 -0.3174899705
C -2.3799900413 1.7531025854 -1.2671775721
C -0.8838294719 1.4941472880 -1.4653641321
C -0.5705798137 0.1548424931 -2.1377033012
C 0.8999071618 -0.0107935128 -2.5319753264
C 1.8660851328 -0.0157277174 -1.3465689415
C 3.3112457468 -0.2960326546 -1.7561388856
C 4.2803131528 -0.2920036300 -0.5749081592
C 5.7277896573 -0.5668206882 -0.9791626516
C 6.6919410554 -0.5614886994 0.2059152517
C 8.1434039312 -0.8243031659 -0.1940573426
C 9.0981964836 -0.8293001896 0.9996078556
C 10.5599684179 -1.0164654779 0.6106228837
O 10.8271522220 -2.2893670147 0.0134906922
H -11.9008029979 0.3152822401 1.0052055491
H -11.5505907852 -0.5395740515 2.5146784942
H -11.2572724456 1.1992670383 2.3957970573
H -9.4708344597 0.7701138550 0.6714210765
H -9.7448623261 -0.9596507770 0.8065915487
H -9.1549952206 -0.8219658498 3.2649296311
H -8.7526183134 0.8740512189 3.0470781096
H -7.3846356634 -1.4831617983 1.6421422027
H -6.7475191945 -0.6042669573 3.0229849216
H -6.7259939803 1.5080066070 1.6196382467
H -7.2178672140 0.5536405489 0.2279646823
H -4.6636647457 0.1036675004 1.8501059272
H -5.1665153510 -0.8696694707 0.4766123952
H -5.0733372704 1.1584231814 -0.9973050328
H -4.5811531681 2.1362851001 0.3769779695
H -3.0145846889 -0.2470658718 -0.7300378462
H -2.5122449945 0.7418283129 0.6333840107
H -2.8861200943 1.7270764148 -2.2425948780
H -2.5170475432 2.7707228581 -0.8775447046
H -0.4585434699 2.3020292605 -2.0768316918
H -0.3828568568 1.5486086432 -0.4901974486
H -0.8553326374 -0.6718019359 -1.4739917831
H -1.1954067521 0.0583482408 -3.0362526784
H 1.0174990312 -0.9514673217 -3.0863695163
H 1.1832948659 0.7929254965 -3.2262337572
H 1.8251078372 0.9497499555 -0.8262958939
H 1.5407703404 -0.7722079221 -0.6178885339
H 3.3637447553 -1.2677701354 -2.2668780698
H 3.6320305812 0.4541428625 -2.4925673172
H 4.2246457375 0.6789380520 -0.0630811505
H 3.9595138639 -1.0434530272 0.1600326359
H 6.0491990140 0.1853235415 -1.7132369908
H 5.7848005192 -1.5379109729 -1.4905803531
H 6.3757467197 -1.3188035920 0.9364231522
H 6.6288566609 0.4066403335 0.7219439231
H 8.1918180221 -1.7912034552 -0.7148951594
H 8.8121902054 -1.6233351381 1.7009843634
H 9.0072307548 0.1237810960 1.5393737447
H 11.1938030933 -0.9773453823 1.5022992327
H 10.8787474188 -0.2007785634 -0.0593478096
H 10.3645333323 -2.3231293559 -0.8301475566
H 8.4652944920 -0.0600090402 -0.9166714415
