65
CONF1128
C -0.1781871904 3.0538330062 3.6842734483
C 0.6180218220 3.3911492568 2.4257467068
C 0.4208971570 2.3930857391 1.2648689443
C -0.9897739273 2.4145239929 0.6805802845
C 0.9161217561 1.0229572997 1.6861481563
O 2.0427276790 0.8222130377 2.1073597236
O -0.0050751759 0.0569479803 1.5342084764
C 0.3972695285 -1.3246180479 1.8186456807
C 0.0499862178 -1.6896922083 3.2529632034
C -1.4564877353 -1.6752308634 3.5631437677
C -2.2679024529 -2.1244584909 2.3887785650
C -1.7917752323 -2.3564921764 1.1510479053
C -0.3219586635 -2.2133318259 0.8059693963
C -0.1407625172 -1.7519088666 -0.6577766777
C -0.8508192001 -2.7247631857 -1.6264997649
C -2.2589843384 -2.9856609262 -1.1776058326
C -2.6749687865 -2.7951491602 0.0841376129
C -0.1123524256 -4.0578060762 -1.8460424135
C 1.3355624847 -1.5291355416 -1.0119070832
C 1.5840425118 -1.0291810208 -2.4384603555
C 1.0604245098 0.3710071071 -2.7098427192
C 1.1690475646 0.7716474993 -4.1666575549
C 0.8872010889 2.2526582370 -4.3350488905
C 1.9293501995 3.0341774507 -3.5489435772
C 2.1731781388 2.5278993468 -2.1491339728
O 2.7315728244 3.2063706143 -1.3047048510
O 1.8250873340 1.2736429920 -1.8211734950
O -0.4354427034 2.4973297771 -3.8281553686
C -1.9623506395 -0.3143137317 4.0733515058
H 0.0070318395 3.7965087080 4.4663024685
H -1.2551804063 3.0337902562 3.4913636760
H 0.1093300781 2.0738197972 4.0816159717
H 0.3348529847 4.3840670833 2.0573029405
H 1.6849848408 3.4340034610 2.6684987616
H 1.1244008710 2.6902026086 0.4761064580
H -1.7410381405 2.0875499548 1.4041716826
H -1.2355754607 3.4348778432 0.3693361464
H -1.0623316624 1.7643646321 -0.1961908867
H 1.4788432049 -1.3888864105 1.6852423347
H 0.4434381223 -2.7012895731 3.4114543017
H 0.5879028135 -1.0265714569 3.9394822984
H -1.6288811242 -2.3936165131 4.3785400825
H -3.3371094252 -2.2503717078 2.5625294263
H 0.1467676086 -3.2052825211 0.9044302476
H -0.6685348952 -0.7932131677 -0.7463228370
H -0.9142859150 -2.2296583017 -2.6058145775
H -2.9560572864 -3.3587265315 -1.9257573577
H -3.7133830246 -2.9861389017 0.3502301130
H -0.7050596803 -4.7099039353 -2.4955351367
H 0.8613969925 -3.9074916382 -2.3216201694
H 0.0428341416 -4.5850002430 -0.8990405880
H 1.7732068053 -0.7997276504 -0.3233903311
H 1.8909884235 -2.4628434868 -0.8596615654
H 2.6610362423 -1.0325235250 -2.6470411207
H 1.1231265304 -1.6981505508 -3.1739965238
H 0.0211388275 0.4727544956 -2.3807679037
H 2.1717244547 0.5504697207 -4.5509310605
H 0.4484885593 0.1756129431 -4.7358257637
H 0.9412087725 2.5337566344 -5.3952147086
H 2.8968833766 2.9747750048 -4.0654992988
H 1.6763064315 4.0963752316 -3.4798349911
H -0.6317143828 3.4343825977 -3.9545002495
H -1.4105613312 -0.0119267686 4.9697936500
H -3.0256238808 -0.3728349779 4.3291003092
H -1.8342044407 0.4591463775 3.3121736874
