47
CONF34
C -1.7160588615 2.6469164955 2.6767453072
C -1.0367626508 1.3553590115 2.2190614085
C -1.2640659890 1.0197124513 0.7423307257
C -2.7296496254 0.7918258059 0.4122139663
O -2.8570878714 0.2695344910 -0.9426972387
C -2.8286717537 1.1712086890 -1.9329196051
O -2.8637048973 2.3730577474 -1.7976257312
C -2.7974199164 0.4934480532 -3.3066647613
C -4.2108335676 0.1722261783 -3.7649851659
O -2.0759819448 -0.7388763454 -3.2948843028
C -0.7952841775 -0.7148467711 -2.8112252792
C -0.2682399972 -1.9532699274 -2.4372865335
C 1.0043245108 -2.0316153063 -1.8957175952
C 1.7429469670 -0.8684307358 -1.7270900807
C 1.2473414613 0.3597034401 -2.1208513376
C -0.0292007300 0.4434321362 -2.6723064875
O 3.0412739506 -0.9445579913 -1.1999550490
C 3.1749306971 -0.9267272101 0.1508765483
C 4.4858881051 -1.0162750370 0.6433985236
C 4.6573649357 -0.9952373377 2.0097051221
C 3.5320592622 -0.8870986092 2.8356151092
C 2.2810604221 -0.8102982567 2.2411805627
N 2.0995562183 -0.8256889535 0.9162196430
C 3.6899308863 -0.8933340666 4.3216294096
F 2.5885543704 -0.4312106527 4.9550387297
F 4.7374640978 -0.1270771978 4.7160302725
F 3.9271298747 -2.1428450052 4.8016792008
H -1.4281010424 2.8996430764 3.7013896802
H -1.4339305968 3.4848882429 2.0302293626
H -2.8072806073 2.5651041634 2.6552257575
H 0.0441457215 1.4403158087 2.3809675837
H -1.3771309597 0.5167938682 2.8420238456
H -0.8816927812 1.8346691342 0.1161421730
H -0.6984192880 0.1190646412 0.4763694928
H -3.3221476125 1.7067663865 0.4929084715
H -3.1638056014 0.0117534859 1.0441774291
H -2.3326879359 1.2097634995 -3.9970653455
H -4.6779324736 -0.5333676684 -3.0734126911
H -4.1805644928 -0.2743845792 -4.7617686807
H -4.8052416770 1.0884993696 -3.8034742045
H -0.8816378856 -2.8389584481 -2.5585771337
H 1.4189389690 -2.9831258731 -1.5812977230
H 1.8493171886 1.2515435103 -1.9851848505
H -0.4120680130 1.4141722901 -2.9634151541
H 5.3191724627 -1.0948754001 -0.0442267319
H 5.6505982376 -1.0559191655 2.4421201283
H 1.3836036005 -0.7285815169 2.8493525149
