43
CONF43
C -3.1507205292 1.3279189005 2.8203782699
Si -1.6180219416 0.8453327711 1.8814859244
C -0.1762626219 1.9786442808 2.2232402104
O -1.2821003569 -0.7109043579 2.3326749415
O -1.9464433353 0.9381684836 0.2621285281
Si -2.0587925265 -0.0059979027 -1.0836606861
C -2.9421292181 0.9925352495 -2.3833583056
C -2.9219537533 -1.6130387501 -0.7102358567
O -0.5411462447 -0.3809812751 -1.6249959231
Si 0.9516836265 0.3216287780 -1.6414787846
C 1.8862069854 -0.3894649101 -3.0856629414
C 0.8128935716 2.1762836671 -1.7243673113
O 1.7261568174 -0.0376843699 -0.2256934259
Si 2.3088244556 -1.2984793505 0.6474275157
C 3.2373242487 -2.5222152102 -0.4045796009
C 3.3455889862 -0.6091667648 2.0281793581
O 0.9351267675 -2.0367814659 1.2687386301
H -3.9715140438 0.6356615590 2.6014538410
H -3.4740009601 2.3366101757 2.5419353115
H -2.9713371400 1.3147513305 3.9008249019
H 0.7109780156 1.6488418923 1.6711960221
H -0.4049885044 3.0050021673 1.9149564543
H 0.0669846697 1.9887648154 3.2913740811
H -0.4813771348 -1.1311372416 1.9599868984
H -2.4196296226 1.9376365864 -2.5680676684
H -2.9939155360 0.4412130855 -3.3284000340
H -3.9652705440 1.2251459759 -2.0683755488
H -2.3531830847 -2.1995761121 0.0187875428
H -3.0330284195 -2.2113656312 -1.6212966819
H -3.9207943320 -1.4316009767 -0.2984447748
H 1.8784656500 -1.4840392705 -3.0621086259
H 1.4303073274 -0.0673749458 -4.0284892046
H 2.9289889206 -0.0544510893 -3.0794381516
H 0.2513252204 2.5638278121 -0.8677900646
H 1.8065246345 2.6378684918 -1.7190150727
H 0.2995249348 2.4871148175 -2.6407429199
H 4.0725089143 -2.0382566935 -0.9226621298
H 3.6465662285 -3.3262730887 0.2177361018
H 2.5816067303 -2.9736238336 -1.1563392608
H 2.7669372299 0.1014831032 2.6285527826
H 3.6950755686 -1.4101809201 2.6888083293
H 4.2243315700 -0.0877800073 1.6329185323
H 1.0626786910 -2.8840595693 1.7124183147
