39
CONF80
C -2.5128161329 -2.3869478724 -2.2648961077
C -1.8505839570 -1.0170464607 -2.3949428438
C -1.2380932939 -0.5894680611 -1.0620487951
N -0.6144270538 0.7446748765 -1.1079521654
C 0.7004070090 0.8427666240 -1.7575805138
C 1.8559130976 0.7676601400 -0.7816639914
O 1.8688557277 -0.5694598883 -0.2012180687
C 2.6353932561 -0.6797625578 0.9140581287
C 3.9710191943 -1.0942181880 0.8447739283
C 4.7545900084 -1.2626687288 1.9793858557
C 4.1779386653 -0.9999897233 3.2148948594
C 2.8582589494 -0.5877643414 3.3454778437
C 2.1065267241 -0.4339517486 2.1878914785
Cl 0.4387177463 0.0676782897 2.3202705664
Cl 5.1473143175 -1.2016351771 4.6608015721
Cl 4.6659360174 -1.4214767387 -0.7227718582
C -1.0289260113 1.8395659551 -0.4401519869
O -0.3761453098 2.8716931136 -0.3179913605
N -2.3280461944 1.7740031596 0.1820517145
C -3.5492396646 1.3621007052 -0.3297713808
C -4.4614911730 1.6174972060 0.6552041917
N -3.8419355929 2.1687143779 1.7629981091
C -2.5709845475 2.2635329937 1.4424503632
H -1.7868123209 -3.1442838353 -1.9500746179
H -3.3177555986 -2.3620154171 -1.5222472870
H -2.9414498926 -2.7058277809 -3.2188740712
H -2.5826327912 -0.2712278721 -2.7241301751
H -1.0717132642 -1.0513083026 -3.1651795252
H -1.9931224744 -0.6012666643 -0.2730851667
H -0.4589817890 -1.3013620792 -0.7684547182
H 0.7711943572 1.7924116149 -2.2961146696
H 0.7772119056 0.0312825172 -2.4859333561
H 1.7476493656 1.5074849964 0.0170715554
H 2.8000574486 0.9381596032 -1.3133890889
H 5.7841688315 -1.5879708076 1.8968521422
H 2.4227875380 -0.3936891519 4.3177360594
H -3.6566168791 0.9757147925 -1.3302966522
H -5.5283198171 1.4439415439 0.6259059025
H -1.7738463958 2.6544592848 2.0609441297
