41
CONF21
C 3.0372904912 3.4878833992 1.8204883587
C 2.8614365525 2.1226172410 1.2312168024
C 2.2214262075 1.0978032459 1.9208083230
C 2.0371672523 -0.1575183102 1.3657393910
C 2.4818997800 -0.4653827822 0.0844408848
C 3.1145392975 0.5569319949 -0.6134454414
C 3.3000150139 1.8116166284 -0.0512286543
F 3.9156308652 2.7581166004 -0.7863065953
F 3.5544483014 0.3423151322 -1.8666355539
C 2.2100875360 -1.8039389208 -0.5216421395
O 0.7856736949 -1.8111671783 -0.8298893092
C 0.3253641981 -2.8460885970 -1.5582367875
O 1.0396201484 -3.7285654637 -1.9965599435
C -1.1356342403 -2.7933074589 -1.7796761641
C -2.0614509569 -1.6691399047 -1.2787530083
C -2.1367808795 -3.0436397060 -0.6584491214
C -3.3371741090 -3.8884727101 -1.0220640559
C -1.6331749150 -3.2695720832 0.7483898637
C -1.5758420604 -0.5133013149 -0.5219213060
C -1.5794126825 0.7482598289 -0.9529686664
C -1.1074064094 1.9073035027 -0.1294227882
F -0.7914458951 1.5311314862 1.1273731005
F -2.0436597147 2.8835623141 -0.0309156974
F -0.0012841847 2.4897510708 -0.6631517237
Cl -2.0788810208 1.2131204901 -2.5642225362
F 1.3905553495 -1.0968113307 2.0806462160
F 1.7458700475 1.3280661074 3.1598156833
H 3.9390090430 3.9623132765 1.4302149970
H 2.1817563520 4.1228834695 1.5633939561
H 3.1031913388 3.4327093939 2.9079828192
H 2.4226467445 -2.6151496098 0.1802694007
H 2.7840834700 -1.9548959047 -1.4366710370
H -2.8347618631 -1.4353442912 -2.0058642542
H -3.0904999420 -4.9526746085 -0.9452429227
H -4.1620458797 -3.6779949213 -0.3325439973
H -3.6761005267 -3.6823549648 -2.0409485245
H -1.4322838670 -4.3359022020 0.8942215740
H -0.7154109710 -2.7235346961 0.9749546481
H -2.4005340412 -2.9689601186 1.4699356869
H -1.2088908682 -0.6704330729 0.4865091678
H -1.4094480325 -3.2198449117 -2.7398373515
