47
CONF158
C -3.2899294751 0.7153181438 -3.4843397399
C -1.8132045298 0.4097809686 -3.5730694486
C -1.3838962991 -0.1090613906 -4.9297956935
C -0.8134154357 1.2360224632 -2.8305661383
C -1.2024290255 2.3471997738 -1.9450702020
C -0.3801654426 2.8987737349 -1.0545328782
Br -0.9107067015 4.3442946543 0.0615928434
Br 1.3920007195 2.2755088430 -0.7668740300
C -1.0764586728 -0.2309862106 -2.3952192839
C -1.7013707610 -0.4459539128 -1.0874700776
O -2.5670366670 0.2165021790 -0.5564518294
O -1.1374708986 -1.5364531939 -0.4702453483
C -1.5376833931 -1.7490823121 0.9077814539
C -2.9692767738 -2.0489023864 0.9944736084
N -4.0778925354 -2.3607367189 1.0776898112
C -1.0820959902 -0.6271206769 1.8222976904
C -1.9636112416 0.0977884997 2.6188677931
C -1.4704854384 1.1189467166 3.4274244360
C -0.1134860943 1.4144764501 3.4497714788
C 0.7574292371 0.6760202928 2.6507665200
O 2.0810317145 1.0574165248 2.6759411586
C 3.0667969226 0.1287737211 2.3739379552
C 4.0780311972 0.5347757086 1.5105154878
C 5.1312416558 -0.3364278275 1.2420561522
C 5.1669169729 -1.6000088596 1.8268436047
C 4.1472279634 -1.9882070543 2.6951577637
C 3.0931479890 -1.1254558460 2.9791930489
C 0.2836951744 -0.3452200260 1.8326594288
H -3.5968949181 1.0650822213 -2.4996341217
H -3.8661518094 -0.1852557683 -3.7200072394
H -3.5416241752 1.4808293044 -4.2264055637
H -1.9198418644 -1.0332250631 -5.1697036092
H -0.3098134258 -0.3117598340 -4.9625285682
H -1.6189296092 0.6329922497 -5.7002969256
H 0.1649000343 1.3450436657 -3.2931529592
H -2.2083491868 2.7511635886 -2.0088371686
H -0.2913325110 -0.9360017295 -2.6440408451
H -1.0105390286 -2.6720769013 1.1750493071
H -3.0264590033 -0.1170785382 2.6001131787
H -2.1527291246 1.6927831277 4.0459898787
H 0.2817441322 2.2093767806 4.0730962044
H 4.0371806518 1.5243598173 1.0673593856
H 5.9235960297 -0.0236217731 0.5693864370
H 5.9868128746 -2.2774783778 1.6124634600
H 4.1745221018 -2.9666840894 3.1644299486
H 2.3017899956 -1.4179030704 3.6615560759
H 0.9652143694 -0.9057285668 1.2018266650
