47
CONF73
C -0.2362397565 2.7657996855 -2.3473517276
O -1.1998712141 2.3107516657 -1.3801416988
C -1.3809395936 0.9833782228 -1.3489235451
C -2.2531435986 0.4047541131 -0.4932244095
C -3.0520419154 1.1596720762 0.4928344902
C -4.4464558815 1.0497873368 0.5167084581
C -5.2152574712 1.7528436380 1.4348225283
C -4.6001364496 2.5829223099 2.3669353455
C -3.2157152418 2.6948381046 2.3817090449
C -2.4635782072 1.9815264548 1.4607625280
O -1.0839350393 2.2053595597 1.4959563078
C -0.2335133468 1.1605970979 1.5451274609
C 1.0788284819 1.4048264106 1.1499112581
C 1.8977352426 0.2896794344 1.1575034958
N 1.5108117898 -0.9238818321 1.5309392649
C 0.2378947084 -1.0069393732 1.9324909291
N -0.6600172618 -0.0287147190 1.9692839524
O 3.1987103442 0.4672623639 0.7587120523
C 3.9133455783 -0.6614304533 0.4035493078
C 4.9558964579 -1.0881262687 1.2065270317
C 5.7265092733 -2.1742101777 0.8044953542
C 5.4555984559 -2.8311441057 -0.3937579373
C 4.4163938717 -2.3981307405 -1.2037614052
C 3.6365238576 -1.3023571080 -0.8131013151
C 2.5911602128 -0.8150255343 -1.6427530195
N 1.7490069820 -0.4033093741 -2.3229812170
C -2.4162597312 -1.0601222666 -0.5145360388
O -3.2636499603 -1.6753606896 0.0982888080
O -1.4879098693 -1.6758005651 -1.3006419763
C -1.6132944084 -3.1057361099 -1.3693766243
H 0.7239296448 2.2608904872 -2.1996002892
H -0.1302779982 3.8388369041 -2.1862331138
H -0.5994058217 2.5776320634 -3.3638685444
H -0.7811614763 0.3890863992 -2.0343617733
H -4.9217738334 0.3978169577 -0.2067563891
H -6.2952459821 1.6520100248 1.4215393360
H -5.1928758313 3.1367498097 3.0873807430
H -2.7033235152 3.3215236310 3.1031684740
H 1.4112469998 2.3762971329 0.8096667087
H -0.1002096322 -1.9872053053 2.2662138094
H 5.1449210745 -0.5702155992 2.1396746731
H 6.5412550100 -2.5128644431 1.4356252553
H 6.0580963448 -3.6790089116 -0.6994071516
H 4.1986792077 -2.8911292618 -2.1443611874
H -1.5145740954 -3.5494109038 -0.3746978466
H -0.8023445667 -3.4354177770 -2.0195158385
H -2.5833921566 -3.3893004756 -1.7876751827
