35
CONF1126
C -0.1028443666 2.8533655652 0.8048037157
C -1.4968391770 2.4836925522 0.3412676560
C -2.5187144107 3.5649667127 0.5732044217
Br -2.0793096225 5.2931574188 -0.2924365329
Br -1.4596820449 1.9165492156 -1.5679222672
O 0.8359512932 1.7612200417 0.6794459098
P 0.8312831487 0.5359895908 1.7051935230
O 0.6951120622 0.8425359556 3.1451316155
O 2.2114836899 -0.1899066307 1.3758710104
C 2.5095758440 -0.6443636542 0.0316506307
C 3.7195837348 -1.5410181298 0.0861816380
C 4.9178729991 -0.9961227708 0.8244660800
Br 5.5984965471 0.6267385457 -0.1080863290
Br 3.2498116674 -3.2414492295 1.0408425678
O -0.3280995337 -0.3813540851 1.0752349344
C -0.7481738417 -1.5834938793 1.7614858433
C -2.0182217072 -2.0739810139 1.1135940298
C -2.0031259904 -2.1543284369 -0.3933401335
Br -0.6272536213 -3.4684284033 -0.9827400673
Br -3.5165073790 -0.8069106349 1.5417012088
H -0.1622403209 3.1724344304 1.8538931552
H 0.3141240947 3.6630781084 0.2046648879
H -1.8591160909 1.5916845132 0.8627048063
H -3.4968907937 3.2837972850 0.1886236429
H -2.5795639332 3.7842739363 1.6415036355
H 2.7430141505 0.2242627487 -0.5949065140
H 1.6535714617 -1.1791924460 -0.3905326329
H 3.9733748064 -1.8591314639 -0.9262433550
H 4.6755865447 -0.6764476594 1.8360741171
H 5.7490683954 -1.6972797986 0.8195882688
H 0.0256983484 -2.3532125628 1.6443678597
H -0.9043814021 -1.3838403285 2.8248968175
H -2.3196279986 -3.0157978539 1.5744969857
H -1.7254519085 -1.2091018424 -0.8568898612
H -2.9444316873 -2.5284492045 -0.7892010457
