24
CONF487
C 1.8340285830 0.3248314478 2.1527087128
C 1.5816161621 0.2321416756 0.6563769098
C 0.0740170059 0.1888092199 0.3571543679
C -0.1981258306 -0.0781954458 -1.1311539620
C -1.6862153900 -0.1116974200 -1.4183509095
O -2.1616245759 0.6107903618 -2.2814193045
C -2.5674742517 -1.0460440425 -0.6314977085
O -3.8658434305 -1.1420432935 -1.1815042777
O 0.4343182652 0.9233266867 -1.9091004504
O -0.5565866079 1.4014962806 0.7659416724
O 2.2206897090 -0.9751102943 0.2131532064
O 3.2284955178 0.4466963299 2.4387663292
H 1.3436363288 1.2120715409 2.5594637115
H 1.4094306628 -0.5672940761 2.6405437172
H 2.0248160212 1.1048526195 0.1571857202
H -0.3759959691 -0.6175662585 0.9493898453
H 0.1979584523 -1.0760927069 -1.3832851992
H -2.6000030327 -0.6644175713 0.4038071102
H -2.1052463687 -2.0413164938 -0.5923071474
H -3.9786637942 -0.3724228018 -1.7620248655
H -0.2452018651 1.2799223907 -2.5063823990
H -0.2218293015 2.1032248735 0.1875864436
H 2.5507249180 -0.8394218918 -0.6833287479
H 3.6630787972 -0.2965412416 1.9982773150
