47
CONF71
C -6.5868293348 -1.3922268487 -2.8699359183
O -6.2064297060 -0.0707595943 -2.3934343622
P -4.7294403337 0.1797756779 -1.8386744752
S -3.2162339896 -0.2565723029 -2.9646807165
O -4.7786637502 1.7238692597 -1.4456016688
C -5.8399627630 2.2353831368 -0.5807308919
O -4.8218374268 -0.6567759853 -0.4376639361
C -3.6830465563 -0.9916297745 0.2939994773
C -2.9118972313 -0.0014042468 0.8950140630
C -1.8122292536 -0.3722594052 1.6567131117
C -1.4784334551 -1.7228644548 1.7939047097
C -2.2640777528 -2.7028858662 1.1857494618
C -3.3786263035 -2.3368227456 0.4370260276
S -0.0956582710 -2.2338312489 2.8065751251
C 1.2498421432 -1.2510057300 2.1548056598
C 2.2575731816 -0.8587061729 3.0396416177
C 3.3619834441 -0.1553036053 2.5711436996
C 3.4346938148 0.1730194147 1.2253367217
C 2.4356686074 -0.2002465260 0.3332967284
C 1.3470706170 -0.9272950335 0.7989322067
O 4.5189451112 0.9429734834 0.8004678304
P 5.6255813875 0.3696882260 -0.2541364835
S 6.0994153740 -1.4943999096 -0.0314888223
O 6.7586101723 1.4830418992 -0.0762840916
C 7.5346863717 1.5347760228 1.1534075221
O 5.0695391213 0.6915886832 -1.7132506206
C 4.6353347320 2.0430754557 -2.0602506960
H -5.9367342785 -1.6917389378 -3.6962059098
H -7.6158477436 -1.2952892996 -3.2141895656
H -6.5276553537 -2.1162847751 -2.0530563739
H -6.7952106966 2.2028200493 -1.1083499157
H -5.8895092780 1.6513971137 0.3420241239
H -5.5618978188 3.2652006638 -0.3596390196
H -3.1769038352 1.0444783699 0.7800889733
H -1.2107455697 0.3903990311 2.1401877599
H -2.0010385190 -3.7507294489 1.2846172912
H -3.9958685841 -3.0840943817 -0.0497702760
H 2.1824312145 -1.1000518740 4.0950915575
H 4.1548311222 0.1518615679 3.2445919759
H 2.5102411119 0.0638369169 -0.7165335041
H 0.5736903047 -1.2348430414 0.1034424531
H 6.8763987035 1.7277494944 2.0046356587
H 8.0754416785 0.5949316171 1.2922017331
H 8.2354565334 2.3588793524 1.0243282605
H 4.1752306264 1.9558017272 -3.0438224523
H 3.9035861368 2.4030420562 -1.3322875024
H 5.4985252209 2.7104321748 -2.1001905825
