65
CONF607
C -2.6578465411 2.3939031356 -1.8832603590
C -3.0578889936 3.1905613864 -0.6443764898
C -1.8892870289 3.9719912516 -0.0281958817
C -2.3417552637 4.8058208011 1.1798357594
C -0.7465355492 3.0683930272 0.3887712187
O 0.4133934389 3.2167690880 0.0514807907
O -1.1691752848 2.0914712825 1.2138841276
C -0.1627944773 1.2060807319 1.7992620221
C 0.2815002354 1.7801976709 3.1338700949
C 1.3372863500 0.8779594110 3.7901232503
C 0.9289154870 -0.5638132533 3.7108508674
C -0.0342448735 -1.0400892941 2.8999643744
C -0.8252924955 -0.1511297163 1.9636554975
C -1.0603640338 -0.8812603448 0.6251149218
C -1.9241960191 -2.1266252646 0.9115872150
C -1.2846645260 -2.9526507583 1.9971826712
C -0.4012469377 -2.4483525334 2.8763381820
C -2.2211514065 -2.9615318287 -0.3375382440
C 0.2667032272 -1.2322100078 -0.0880616249
C 0.2866892217 -0.7686047065 -1.5439830604
C 1.6030278827 -1.0578306716 -2.2440076574
C 1.9230210875 -2.5306983737 -2.4009360823
C 3.1499356592 -2.6941556348 -3.2821449882
C 2.8398896187 -2.1344088007 -4.6571597350
C 2.1369527824 -0.7983753613 -4.6589503224
O 2.0753677757 -0.1031417565 -5.6541583488
O 1.5004303943 -0.3784826594 -3.5506876288
O 3.5153040897 -4.0659985291 -3.4697576335
C 2.7408704895 1.0875311305 3.1940266236
H -1.9005830059 1.6397068439 -1.6426072444
H -3.5194014495 1.8723978649 -2.3107640232
H -2.2410671375 3.0505520956 -2.6544766310
H -3.8374093114 3.9168187285 -0.9045403670
H -3.4851804562 2.5255676298 0.1150486057
H -1.4685220685 4.6403516627 -0.7875596881
H -3.0934988188 5.5338174903 0.8607303575
H -2.7852821891 4.1639427230 1.9468283795
H -1.5034301481 5.3511746134 1.6242514267
H 0.6781876570 1.1498925100 1.1031646422
H 0.6809138845 2.7902008197 2.9903478029
H -0.5988970760 1.8538703732 3.7842785125
H 1.3971070397 1.1519469976 4.8528558641
H 1.4652287573 -1.2628460711 4.3527437095
H -1.8123716245 0.0207015028 2.4215720089
H -1.6414195759 -0.2101448376 -0.0204568235
H -2.8934605939 -1.7615501011 1.2889088378
H -1.5461831980 -4.0085304706 2.0438791238
H 0.0634671145 -3.0968547614 3.6167919958
H -2.6949826117 -2.3449827458 -1.1084130906
H -1.3095378620 -3.3966318075 -0.7601394204
H -2.8999157696 -3.7847847049 -0.0924053879
H 1.1157211966 -0.7779446708 0.4387618001
H 0.4339264686 -2.3122469029 -0.0298923270
H -0.5261278280 -1.2429325362 -2.1087827367
H 0.1164297088 0.3146492334 -1.5776376485
H 2.4244459400 -0.5536066032 -1.7168762685
H 1.0705833307 -3.0631608623 -2.8438903686
H 2.1139423172 -2.9526685761 -1.4085766423
H 3.9915144269 -2.1404786020 -2.8367565410
H 2.1594818370 -2.8295398083 -5.1694097818
H 3.7332893023 -2.0429660188 -5.2800234978
H 3.8052336999 -4.4127131677 -2.6162898041
H 3.0664581347 2.1230608750 3.3375827230
H 2.7499938852 0.8667400886 2.1215555169
H 3.4685008204 0.4278707898 3.6774672186
