45
CONF708
O -0.7212207607 -0.3640113656 -2.9562983806
C -1.9977571587 -0.9524577969 -2.7067856816
C -2.4264376488 -0.8784352612 -1.2589319647
O -1.4646867512 -1.6119331082 -0.4476050925
C -1.3295889718 -1.0171681669 0.8262326145
C -1.4421104125 -2.0779410947 1.9065062894
O -2.7242581162 -2.6908028235 1.7997322321
O -0.0417734987 -0.3798160885 1.0006409836
C 1.0531294836 -0.8722403850 0.2519410602
O 1.2521904119 -0.1188263208 -0.9368593049
C 1.5396941088 1.2866744995 -0.7171433575
C 1.5887801498 1.9639178047 -2.0766990162
O 0.2981676953 2.2459391765 -2.6105775460
C 2.8518979248 1.3981495100 0.0564017189
O 3.1141496503 2.7837477220 0.2767592606
C 2.7116040244 0.6548848689 1.3766273865
O 3.9753807880 0.7311725027 2.0402489235
C 2.3029592925 -0.7951037173 1.1346534420
O 2.1241781498 -1.4994486809 2.3598392680
C -2.3815119089 0.1103462520 0.8781734215
O -2.0805082314 1.1546014205 1.7756384919
C -2.4979649916 0.4976960401 -0.6005254628
O -3.6486338555 1.2474672227 -0.9437713781
H -0.1060257691 -0.6520220835 -2.2577821107
H -2.7322941076 -0.4146778124 -3.3153572006
H -1.9967444995 -2.0060798185 -3.0209094443
H -3.4095533376 -1.3697106417 -1.1707031389
H -1.3072353651 -1.5847051587 2.8796356708
H -0.6302178135 -2.8077696525 1.7639498094
H -2.8332441755 -3.2813414472 2.5542651125
H 0.8769363935 -1.8999333367 -0.0784373884
H 0.7316920278 1.7396435573 -0.1246465619
H 2.1853693077 1.3421407767 -2.7624929961
H 2.0952293642 2.9255168488 -1.9596220612
H -0.1469750685 1.3988484939 -2.8026857748
H 3.6629767436 0.9368097649 -0.5321007744
H 3.8598852866 2.8347472094 0.8898312005
H 1.9361185471 1.1593619267 1.9772869920
H 3.8809220563 0.2948512236 2.8972664764
H 3.1147827760 -1.3055522219 0.6041780746
H 1.3436098608 -1.1226970852 2.7927733894
H -3.3349322685 -0.3223427628 1.2056974696
H -1.1808591691 1.4537999673 1.5792802070
H -1.6346312034 1.1089558589 -0.8916424069
H -4.4304879591 0.7557442735 -0.6559822613
