36
CONF260
C 3.8500805916 2.9462032801 -2.2590132173
C 2.3805216586 2.5348507417 -2.0970424114
C 2.2302974638 1.0660043739 -1.8465386416
C 1.6782899793 0.5228966504 -0.7597024257
C 1.5467752207 -0.9513601161 -0.5166586345
C 0.0973846465 -1.4560773136 -0.5615272791
C -0.9460177558 -0.7633459816 0.3311580171
C -2.2829491337 -1.1858906787 -0.3063860278
C -2.0070176772 -1.0964079826 -1.8101887322
C -0.5315497171 -1.4170926922 -1.9481820452
O 0.0576330533 -1.6139272214 -2.9946070604
C -0.8093348800 -1.1251813612 1.8023406847
C -1.7552107525 -0.3595162316 2.6923573651
O -2.2402363734 0.7249819574 2.4360736527
O -1.9763011990 -1.0153108234 3.8475860218
C -2.8156324279 -0.3282479268 4.8104109371
H 4.4132449698 2.7402807399 -1.3430750819
H 3.9355777369 4.0142507455 -2.4819474179
H 4.3213432743 2.3904126441 -3.0766284943
H 1.8384857026 2.8019987199 -3.0148912010
H 1.9191934537 3.0980684971 -1.2773839303
H 2.6286371243 0.4054503924 -2.6203488005
H 1.2918490753 1.1855952846 0.0161011727
H 1.9687298725 -1.2043644473 0.4645842721
H 2.1232087840 -1.5032873242 -1.2672137690
H 0.0971317699 -2.5292584154 -0.2978206553
H -0.8418352399 0.3228764962 0.2195963472
H -3.1168500991 -0.5577734592 0.0150503460
H -2.5062322269 -2.2227311560 -0.0247521460
H -2.1369851058 -0.0655752238 -2.1706104329
H -2.6184765751 -1.7430842572 -2.4452722316
H -0.9510195469 -2.2003182978 1.9572028663
H 0.2022067719 -0.8887805141 2.1626853251
H -2.3627324437 0.6254482473 5.0915621522
H -2.8729219989 -0.9942767087 5.6703096738
H -3.8092876895 -0.1575112299 4.3896953901
