65
CONF96
C 5.8911259130 0.3649070837 1.8301733190
O 4.5572217064 0.2145396935 2.3015643860
C 3.9502659725 -0.9930310790 2.0946230579
C 4.5463836588 -2.0815524143 1.4559548540
C 3.8195033388 -3.2609300439 1.2960583704
C 2.5090795388 -3.3845235347 1.7521181284
C 1.9398314869 -2.2849835913 2.4050802874
C 2.6437932367 -1.1046712586 2.5786360475
C 1.6963105699 -4.6168668854 1.4670839753
C 1.0123145994 -4.5808574207 0.0853913503
N 0.1609063505 -3.3979592589 -0.0729486285
C 0.8314092352 -2.3282487011 -0.8196402757
C 0.0180631327 -1.0440268620 -0.7532997969
C -1.3922510404 -1.2700281584 -1.3016265142
C -2.0433960737 -2.4568413425 -0.5990904943
C -1.1425219417 -3.6883290369 -0.6671756305
N -2.2451891789 -0.0823904595 -1.1350123660
C -1.9395757898 1.0345077091 -1.8708884347
N -1.2926696373 1.0487373732 -3.0163516935
C -1.2685431759 2.3826450622 -3.3901812303
C -0.7072366942 2.9834540189 -4.5137788536
C -0.8081535212 4.3668432082 -4.6404417513
C -1.4535908987 5.1446592443 -3.6726014685
C -2.0268427395 4.5624733459 -2.5410642809
C -1.9230886885 3.1849864915 -2.4254313124
N -2.3652386407 2.2904778200 -1.4567205205
C -2.9594990412 2.6053459381 -0.1734441141
C -2.0636669813 2.2298162870 0.9915775254
C -2.6077106440 1.6665694357 2.1458606498
C -1.7953963085 1.3056513271 3.2172149660
C -0.4321015133 1.5148140705 3.1043091486
C 0.1460275150 2.0649881229 1.9707929168
C -0.6821523473 2.4221126601 0.9138832337
F 0.3646815933 1.1624034452 4.1379226834
H 5.9481892587 0.2353459800 0.7411109309
H 6.5706962643 -0.3461024770 2.3186002300
H 6.1871689967 1.3825611744 2.0888630736
H 5.5621643569 -2.0295398238 1.0838811023
H 4.2898977681 -4.1001488005 0.7892895147
H 0.9180671728 -2.3541198378 2.7658448046
H 2.2015576435 -0.2578586103 3.0917912391
H 2.3325541958 -5.5097840560 1.5137051103
H 0.9171912842 -4.7268266105 2.2293141558
H 0.4011475746 -5.4863496590 -0.0174945552
H 1.7792726843 -4.6286052575 -0.7074871612
H 0.9792913750 -2.6211257586 -1.8812030601
H 1.8221778142 -2.1598120661 -0.3884449623
H -0.0474500433 -0.7183297580 0.2945097641
H 0.5132291552 -0.2535305654 -1.3269843967
H -1.3300139414 -1.4695800044 -2.3779981905
H -2.2091621735 -2.2056022584 0.4584971996
H -3.0168997332 -2.6745287414 -1.0524373020
H -1.6089600661 -4.5102979558 -0.1118182661
H -1.0518708773 -4.0165224529 -1.7251281804
H -2.4220119317 0.1185866750 -0.1575818294
H -0.3766598105 4.8547907175 -5.5083638203
H -1.5129631261 6.2200631091 -3.8018691780
H -2.5292465381 5.1733384750 -1.7974257626
H -3.1626517349 3.6817792909 -0.1639076398
H -3.9308726472 2.1019062405 -0.0736023491
H -2.2018367730 0.8636392650 4.1196499180
H 1.2210324242 2.1983541264 1.9226238277
H -0.2480296155 2.8395609818 0.0099043161
H -3.6798518983 1.5005571189 2.2119951960
H -0.2058769574 2.3799961505 -5.2628187194
