58
CONF13
C -2.3577469419 2.4634210501 -4.3990543440
C -3.5074421086 2.1828499069 -3.6605722444
C -3.4007404140 1.4828494883 -2.4670924019
C -2.1551369483 1.0560585122 -1.9814467692
C -0.9989809887 1.3245276047 -2.7339910844
C -1.1220148079 2.0312753727 -3.9368095094
C 0.3652098039 0.8691567049 -2.2779922833
C 0.2958899035 -0.2998431835 -1.2870477579
C -0.6640716730 0.0776098485 -0.1532880975
C -2.0949240665 0.2514897728 -0.6897776622
C -3.0053907244 0.7670769983 0.4099462622
C -3.7928296124 -0.2215177919 1.1246938765
O -3.7399484195 -1.4226507114 0.8046198253
C -4.6599561548 0.1885072899 2.2555035569
C -5.4135339436 -0.8052056081 2.9049686802
C -6.2366637889 -0.5035495110 3.9733715268
C -6.3277302330 0.8153645605 4.4313845015
C -5.5979894940 1.8166732954 3.8154295276
C -4.7685881780 1.5039274637 2.7292958201
S -3.9084512435 2.8607708007 2.0173146529
C -2.9922352953 2.0925503947 0.7439365417
O -2.2530071160 3.0313622744 0.1240326519
C 1.6661371361 -0.6810993867 -0.7834462577
C 2.2145824605 -1.9304718579 -1.0828223948
C 3.4806364461 -2.2884747504 -0.6326170068
C 4.2442960049 -1.4038437586 0.1391978856
C 3.6928550399 -0.1506136527 0.4427074875
C 2.4292382936 0.2029827367 -0.0121300871
C 5.5899747112 -1.7780843513 0.6184473619
C 6.0454033731 -1.3693318613 1.8795757382
C 7.3115075608 -1.7163850238 2.3383301518
C 8.1305071470 -2.4843474013 1.5208197061
C 7.7163324714 -2.9095057639 0.2651135495
C 6.4473089990 -2.5514279879 -0.1764183312
Br 9.8810481923 -2.9704747792 2.1424229846
H -2.4273365937 3.0106262027 -5.3340721332
H -4.4808981993 2.5061960475 -4.0155957158
H -4.2936254682 1.2627063410 -1.8874760638
H -0.2257111245 2.2360032731 -4.5167530073
H 0.8865355843 1.7113958156 -1.8009552292
H 0.9647322408 0.5908973937 -3.1518752058
H -0.1234948827 -1.1694096169 -1.8110411017
H -0.6716107012 -0.6968484382 0.6208834851
H -0.3210674478 1.0074573292 0.3184012289
H -2.4741332143 -0.7502882550 -0.9254738287
H -5.3280961574 -1.8219280655 2.5388262552
H -6.8100133249 -1.2877226256 4.4564588668
H -6.9699136730 1.0611145641 5.2708260558
H -5.6666094127 2.8415637937 4.1676519327
H -1.9312402326 2.6817677676 -0.7313935388
H 1.6375906398 -2.6383436995 -1.6721549625
H 3.8693735470 -3.2755592207 -0.8642923989
H 4.2699022673 0.5650258865 1.0206441263
H 2.0376562030 1.1864944095 0.2319184366
H 5.3963181049 -0.7891171625 2.5276265174
H 7.6451265999 -1.4002718921 3.3200328913
H 8.3707322912 -3.5001124506 -0.3656535655
H 6.1322338749 -2.8632726790 -1.1670580991
