28
CONF6
C -3.2080699153 0.2864254071 0.0463402088
N -1.7948255528 0.5980717304 0.2248835037
C -1.4693387695 1.2423841240 1.5174183984
O -0.0845747283 1.3896136543 1.6759789958
C 0.4586187972 1.9143943800 0.4652481321
N 0.3438523124 0.9142471162 -0.5842281897
C -0.8498780629 0.2657132986 -0.6644589103
N -1.0385668870 -0.5332501082 -1.7412312291
N -1.6843897286 -1.7043346326 -1.5309525285
O -2.0967265506 -2.2854122260 -2.5445838139
O -1.7890558281 -2.1971504299 -0.3909111233
C 1.5773193661 0.2823977547 -1.0888537598
C 2.2516372021 -0.5635259724 -0.0578336206
C 3.4210126502 -0.3137952168 0.6018752271
N 3.8170088582 -1.2457741632 1.5334416709
C 2.9493308163 -2.2032824576 1.5894439412
S 1.5764385819 -2.0700300454 0.5185821199
Cl 3.0921643786 -3.5613941845 2.6467613780
H -3.7923165785 1.1214679502 0.4453932061
H -3.4352215754 0.1780464655 -1.0156035374
H -3.4779750223 -0.6331373950 0.5753675293
H -1.9888789851 2.2135353410 1.5490620076
H -1.8258254992 0.5987569313 2.3292727527
H 1.5110627403 2.1368659346 0.6421959503
H -0.0847198609 2.8249149387 0.1748438005
H 1.3181907774 -0.2949134995 -1.9781858580
H 2.2652844489 1.0781937671 -1.3894243132
H 4.0384432181 0.5609715267 0.4277438741
