78
CONF273
C -0.8743656270 0.0838259550 -0.7818023284
C -0.3398999125 1.3387145058 -1.4625838405
O -0.7214580977 1.1708468807 -2.8620629732
C -0.9317061334 -0.1456096337 -3.1495035467
O -1.1771289861 -0.5256208201 -4.2642728134
C -0.7268939440 -0.9512635089 -1.8826178265
C -1.5944251340 -2.1795990657 -1.5970470112
C -3.0897471268 -1.8996000904 -1.7170002122
C -3.8789836212 -1.6577808764 -0.5912647473
C -5.2364730202 -1.3580275663 -0.7255154342
O -6.0864623614 -1.1157029626 0.3127806896
C -5.5462920959 -1.2000285404 1.6249685097
C -5.8112462854 -1.2862116186 -1.9980856938
O -7.1323151623 -0.9838517702 -2.1234825031
C -5.0111837419 -1.5333782031 -3.1189032531
O -5.6838130167 -1.4310270692 -4.3094471552
C -4.9050985827 -1.5198770234 -5.5041836879
C -3.6641318383 -1.8510856786 -2.9878402266
C -1.2184814252 -2.6845339022 -0.2113260146
C -1.5424537589 -4.0222673429 0.0940988870
C -1.2614726562 -4.4824222622 1.3550454003
C -0.6833875318 -3.6656743306 2.3210537951
O -0.5184045023 -4.3635205025 3.4887036518
C -1.0038575539 -5.6929865278 3.2271214504
O -1.4855221013 -5.7303179014 1.8711945385
C -0.3665452536 -2.3588073808 2.0575260209
C -0.6406890989 -1.8593530852 0.7643976641
C -0.2213354707 -0.4272030158 0.4875083977
O 1.2288894513 -0.4059064789 0.3366834798
C 1.9155184299 0.3949938584 1.2395460088
O 1.7234398441 1.7697111488 0.8905137426
C 2.4383249085 2.6098369811 1.7950123442
C 2.1882388065 4.0659502565 1.4417894850
O 2.9517823262 4.8842314293 2.3371397414
C 4.3425587614 4.5838704827 2.3349814407
O 4.6117614400 3.2190636848 2.6039826194
C 3.9403556252 2.3522553457 1.6849703080
C 4.2584656310 0.9124114928 2.0182730058
O 5.6379639255 0.6759823927 1.7785652512
C 3.3905887382 0.0144749462 1.1389058652
O 3.5999351416 -1.3217229881 1.5839515389
C 5.0253527356 5.0326198266 1.0672238512
C 6.1404711933 4.4978872200 0.4791715070
C 6.5754419546 5.2319138629 -0.6556334054
C 5.7934227390 6.3232962591 -0.9136041768
S 4.5035440306 6.4675327327 0.2326668754
H -1.9463742469 0.2136609992 -0.5790609546
H 0.7493100699 1.4088420268 -1.4051106714
H -0.7896788310 2.2698334842 -1.1132104651
H 0.3259059438 -1.2767178619 -1.9174513782
H -1.3425260772 -2.9580591461 -2.3275810120
H -3.4327875550 -1.7250023003 0.3926010041
H -4.7529295429 -0.4563162449 1.7820182520
H -5.1495092753 -2.2030579517 1.8322261911
H -6.3763130117 -0.9907054521 2.3012590207
H -7.3266212125 -0.9723517964 -3.0710754106
H -4.4788189340 -2.5238975569 -5.6207267874
H -5.5947692869 -1.3203139224 -6.3251655165
H -4.0984499643 -0.7772631529 -5.5026713310
H -3.0470304638 -2.0279468515 -3.8583001332
H -2.0136559426 -4.6582671906 -0.6474115872
H -1.8311918837 -5.9183069585 3.9109910855
H -0.1797655260 -6.4088173186 3.3392199344
H 0.0827718471 -1.7295974974 2.8181781214
H -0.4817167314 0.2105383741 1.3426834728
H 1.5554087637 0.2352610626 2.2759938317
H 2.1152684393 2.4241921398 2.8338304640
H 1.1419077840 4.3460823299 1.5867164382
H 2.4681192123 4.2449299282 0.3925420924
H 4.7385389885 5.1261452393 3.2003135905
H 4.2624135344 2.5625781369 0.6530733030
H 4.0081216762 0.7236161405 3.0766707183
H 5.7864882076 -0.2690302453 1.9084212552
H 3.6988698341 0.1396146770 0.0882383283
H 3.0511378918 -1.8965445368 1.0351258350
H 6.6208502606 3.6030869119 0.8576514896
H 7.4330838890 4.9601975487 -1.2588905336
H 5.8916606699 7.0450498942 -1.7126979517
