88
CONF14
C 1.5188260029 -1.2255937462 0.9275956446
C 0.0950384306 -0.7161364542 0.6879310252
C -0.2757589847 -0.8442643542 -0.7829142103
O -1.5923985982 -0.2670244821 -1.0054346134
C -2.6678217539 -1.0744569626 -0.8262031986
O -2.5839102738 -2.2526419369 -0.5163882374
C -3.9046574466 -0.3248657372 -1.0567408742
C -5.1030260349 -0.9266220215 -0.9295975590
C -6.4133272221 -0.3253789546 -1.1112470540
C -6.5786692842 1.0391935781 -1.3965857379
C -7.8595729938 1.5568522961 -1.5612256651
O -8.1393131920 2.8569286909 -1.8352311673
C -7.0287209836 3.7552637769 -1.9785193278
C -8.9860084727 0.7209301762 -1.4372228131
O -10.2457297069 1.2423725945 -1.5538462279
C -10.7181984667 1.2894644092 -2.9202653801
C -8.8162593602 -0.6430932376 -1.1560967957
O -9.9622993376 -1.3660960020 -1.0673015357
C -9.8363953751 -2.7687307081 -0.7872545622
C -7.5326824911 -1.1622465132 -0.9854807690
C 0.6843215742 -0.0845125959 -1.6905063388
O 0.3894389342 -0.3521948250 -3.0662911647
C -0.3071332595 0.7029599903 -3.7348588825
C 2.1128266500 -0.5718756302 -1.4364636415
C 3.1483017120 0.1222841692 -2.2947251399
O 4.2232697273 -0.3722831949 -2.5769302771
O 2.7864774236 1.3624678135 -2.6564093566
C 3.7697264049 2.1118396885 -3.4147671048
C 2.5381247674 -0.4824931643 0.0500912252
C 2.7217835276 0.9542629837 0.5445318252
C 3.0837843729 1.0080227953 2.0313906297
N 2.0947366191 0.2597019538 2.8397629854
C 2.4673409924 0.3127518597 4.2652206666
C 3.7979122471 -0.3969880732 4.6030060966
C 4.8052815676 -0.0991842454 3.5405661279
C 4.4673839314 0.5207400680 2.3631826136
N 5.5950248705 0.6455171668 1.5667616417
C 6.6718675527 0.0949286590 2.2208874562
C 6.2075756734 -0.3911450816 3.4736234753
C 7.1308124516 -1.0064940505 4.3317129474
C 8.4535301624 -1.1211549487 3.9386186664
C 8.8858758777 -0.6278729316 2.6877199848
O 10.2208438868 -0.8085438490 2.4302536187
C 10.7171883856 -0.3275591345 1.1778834937
C 8.0023358904 -0.0105353225 1.8059566090
C 1.9479161743 -1.1335155726 2.3907012903
H 1.5471684830 -2.2889722223 0.6514665932
H -0.6125431447 -1.2972226550 1.2890870760
H -0.0020150079 0.3321612805 0.9894494824
H -0.3002563533 -1.8964357639 -1.0885069728
H -3.7966992139 0.7201887220 -1.3266138673
H -5.1035082006 -1.9824674041 -0.6629951622
H -5.7143353748 1.6834406060 -1.4835265518
H -7.4673355182 4.7286380616 -2.1981930904
H -6.4487106826 3.8116252194 -1.0503327639
H -6.3791575615 3.4462896404 -2.8054145371
H -10.0573995383 1.9128688549 -3.5323502481
H -10.7713502276 0.2777778172 -3.3380418815
H -11.7160571636 1.7295154165 -2.8846263730
H -10.8557682323 -3.1539822465 -0.7635377674
H -9.3563582339 -2.9329195518 0.1841021464
H -9.2672806208 -3.2756139267 -1.5747784033
H -7.3806930146 -2.2116628563 -0.7653091854
H 0.5968359551 0.9912531664 -1.4904981516
H -1.2955664876 0.8783278232 -3.2934294513
H 0.2751121497 1.6337582287 -3.7070053223
H -0.4279366470 0.3865870216 -4.7737544958
H 2.1552713775 -1.6308315606 -1.7218306211
H 3.9965291404 1.5944915744 -4.3496981732
H 4.6821020416 2.2337057419 -2.8260940470
H 3.3059698492 3.0773824546 -3.6116000144
H 3.5019087704 -1.0012452874 0.1402518882
H 1.8049216895 1.5343316411 0.4011360430
H 3.4998373041 1.4660328312 -0.0330114696
H 3.0050449861 2.0615997329 2.3420632351
H 1.6510361486 -0.1240519959 4.8523325292
H 2.5458199281 1.3720100749 4.5410586735
H 3.6454284432 -1.4815085433 4.6981405708
H 4.1431162845 -0.0530791307 5.5862925732
H 5.6307852720 1.0693987835 0.6537196324
H 6.8166081341 -1.3912047785 5.2979253390
H 9.1873061670 -1.5926383068 4.5846312065
H 10.5786830482 0.7570049279 1.0878911274
H 11.7823124000 -0.5619213258 1.1689381949
H 10.2233502237 -0.8304459076 0.3371723628
H 8.3126989006 0.3743894126 0.8422695185
H 1.1944260355 -1.6095239435 3.0310550087
H 2.8850358016 -1.7070308790 2.5032748435
