119
CONF865
C -8.0820740441 1.1695251507 4.3354423804
C -8.6085716807 1.3862425306 2.9179089210
C -10.1229845962 1.1749723294 2.8602981827
C -7.9034259590 0.4376297115 1.9260946833
C -8.4290055082 0.6834404225 0.5051263046
O -8.2569575443 1.7889225272 -0.0217669286
N -9.0477408072 -0.3244338931 -0.1465400334
C -9.5327711729 -0.1390004572 -1.5318579384
C -9.8689667365 -1.5524355928 -1.9498623214
C -8.9964064134 -2.2796516837 -2.9372996196
C -10.4097853461 -1.8784601346 -3.3019285736
C -10.3177944157 -2.2352537183 -0.6781096672
C -9.3117339206 -1.6875312704 0.3574030257
C -8.0503238441 -2.5000798314 0.4251363818
N -7.9401157068 -3.6844943988 1.0074795894
C -6.6315330950 -4.0584531789 0.8310541536
C -5.9300108802 -3.0856701385 0.1400991000
N -6.8690967305 -2.1033606552 -0.1116914278
C -4.5272157310 -2.9541423077 -0.1997524633
C -3.9893871260 -1.7203676568 -0.6216991209
C -2.6389718992 -1.6412202372 -0.8743208339
C -1.7765175001 -2.7367970734 -0.7247028259
C -2.2990261244 -3.9602147533 -0.3163241151
C -3.6631241702 -4.0578276016 -0.0645940953
C -0.4100414870 -2.3150045084 -1.0484736515
C -0.4232766551 -0.9554690085 -1.3977888846
C -1.8370485916 -0.4381594919 -1.3053600619
F -2.2834902722 0.0793272386 -2.5087860680
F -1.9507022459 0.6095333547 -0.4074633970
C 0.7204368487 -0.2699444340 -1.7417276993
C 1.9492301553 -0.9593312398 -1.7464139648
C 1.9584056327 -2.3214743594 -1.4024307207
C 0.7959598830 -3.0058720082 -1.0523302508
C 3.1999719781 -0.2529100725 -2.0829918994
C 4.3817630283 -0.5635094738 -1.4003817317
C 5.5129317669 0.1679689184 -1.7265475993
C 5.5173667728 1.1913363383 -2.7025226288
C 4.3401161757 1.4821095570 -3.3935670683
C 3.2007061497 0.7598798760 -3.0717707515
N 6.7660123714 1.7884295334 -2.7611290308
C 7.4872790379 1.1547484444 -1.8572655865
N 6.7910637459 0.1656788931 -1.2138352973
C 8.9175506011 1.4793114071 -1.5457681865
C 9.9379939733 0.8323709927 -2.5193894330
C 11.3260807520 1.4358225967 -2.2066889955
C 11.7090799790 0.7757544094 -0.8440513479
C 10.4606551942 -0.0696210538 -0.5357108535
C 10.0647392927 -0.5795041599 -1.9250962003
N 9.3583323567 0.8877705216 -0.2635425604
C 9.0020413959 1.2628843078 0.9841686507
O 9.4829025688 0.7386198155 1.9950625969
C 7.9325657776 2.3563202227 1.1373254403
C 8.4972313389 3.5197848633 1.9782146286
C 9.7390441494 4.0952596368 1.2934019340
C 7.4403608988 4.6030548058 2.1846263826
N 6.7682716930 1.7219270494 1.7390935264
C 5.5100481471 1.9206609341 1.2745553008
O 5.1948961883 2.6851577278 0.3741889947
O 4.6251875772 1.1419407366 1.9539355706
C 3.2426955011 1.3262788076 1.5755849219
N -6.4635771773 0.6454709980 1.8722916041
C -5.5745577074 -0.2264283340 2.4073124546
O -5.8544895450 -1.2498867347 3.0152111385
O -4.3022980834 0.1964014301 2.1762417696
C -3.2706541219 -0.6664045575 2.7020518523
H -6.9992805168 1.3143310389 4.3924722463
H -8.5548765285 1.8764821052 5.0243776014
H -8.3112163691 0.1541915749 4.6791567516
H -8.3804761803 2.4121771853 2.5997269330
H -10.6258842320 1.8433665208 3.5654339642
H -10.5277907465 1.3752677661 1.8625299495
H -10.3782178950 0.1441901460 3.1343382409
H -8.0613478688 -0.5930250348 2.2540442141
H -10.4194967035 0.5101849557 -1.5287076996
H -8.7620543036 0.3284859545 -2.1511562490
H -8.1813506617 -1.7269975221 -3.3944694491
H -8.8004318554 -3.3318739540 -2.7542335699
H -11.1586178011 -2.6616789003 -3.3673211963
H -10.5348987752 -1.0601219581 -4.0045245622
H -11.3273844768 -1.9102391900 -0.4000284540
H -10.2956935911 -3.3252611069 -0.7304143043
H -9.7637540310 -1.6638713959 1.3542945824
H -6.2496816648 -4.9843695531 1.2382417189
H -6.7246210092 -1.2526545216 -0.6343673427
H -4.6083437317 -0.8346998184 -0.7223795894
H -1.6609014969 -4.8298549450 -0.1962114627
H -4.0725317491 -5.0127419481 0.2477672818
H 0.6814915950 0.7889964915 -1.9775994115
H 2.8985659993 -2.8632446180 -1.4292779963
H 0.8387475645 -4.0601511403 -0.7977811214
H 4.3980766055 -1.3094700817 -0.6127011713
H 4.3166323463 2.2548009822 -4.1551797805
H 2.2800565850 0.9644981219 -3.6084461736
H 7.1395802967 -0.4211265583 -0.4706559149
H 9.0289271105 2.5694596411 -1.5571231542
H 9.6227441517 0.9121363875 -3.5602359738
H 12.0358695249 1.1630727143 -2.9921793543
H 11.2897978840 2.5276841219 -2.1507422751
H 12.5865043533 0.1292067105 -0.9396530058
H 11.9048725026 1.5045205502 -0.0534427579
H 10.5556075633 -0.7948858360 0.2706236726
H 10.8647587006 -1.1602594522 -2.3906851569
H 9.1360577278 -1.1557734040 -1.9349136086
H 7.6096575702 2.7564691526 0.1727505887
H 8.7853974766 3.1047197886 2.9526883006
H 10.5317533660 3.3475355834 1.1850470307
H 9.4850510036 4.4729554349 0.2952770565
H 10.1424598474 4.9290109512 1.8755744271
H 7.1447079969 5.0416399985 1.2246841369
H 7.8425126440 5.4031225493 2.8141905517
H 6.5442767546 4.2075952668 2.6715175658
H 6.9105729283 1.0932647811 2.5164864317
H 2.6810308064 0.6263765618 2.1942391701
H 2.9248752625 2.3525815065 1.7773347962
H 3.1012904783 1.0954484180 0.5163764984
H -6.1189711420 1.4704344379 1.4024365149
H -2.3306659241 -0.1972436972 2.4120748491
H -3.3456078490 -0.7333460008 3.7904984718
H -3.3450209093 -1.6648226914 2.2624199138
