24
CONF3
C -1.1256228405 -1.9456400223 1.8082025156
N -1.5443570844 -0.8275065234 0.9686673914
C -0.6954912114 0.0674186406 0.3352312525
C -1.4935584161 0.9897362356 -0.3248751580
C -2.8442986336 0.6577804592 -0.0937162374
C -2.8355298525 -0.4723022791 0.7056654919
Br -4.2925933948 -1.4416382612 1.3663059931
Br -4.3593957445 1.5470934586 -0.7454929464
Br -0.8476303818 2.4098542464 -1.3708700929
C 0.7447203289 -0.0411011464 0.3730958879
C 1.5766064471 -0.9655610628 -0.2406759278
C 2.9132136392 -0.6316838029 0.0592161051
C 2.8622390448 0.5015591179 0.8526382366
N 1.5588420515 0.8563549364 1.0471431704
C 1.0960836440 1.9820594704 1.8527458836
Br 4.2825308150 1.4774988626 1.5802487535
Br 4.4608891872 -1.5224986440 -0.5085167048
Br 0.9866128453 -2.3905744823 -1.3126122137
H -1.4132599807 -2.8941063631 1.3466744315
H -0.0407411317 -1.9059885279 1.9091804804
H -1.5861931845 -1.8619000251 2.7954914271
H 1.3897272860 2.9270623608 1.3877198054
H 1.5206261005 1.9184024121 2.8573850880
H 0.0086881942 1.9307309002 1.9142944920
