42
CONF135
C -6.8259573225 1.7236572969 1.4687791202
C -5.9441563503 1.0701032837 2.5293119561
C -4.7543926022 0.3258405731 1.9682375447
O -5.1526407634 -0.6653214695 1.0367993969
C -3.9575903637 -0.9475285684 0.3002077147
C -3.2591287746 0.4255087556 0.2098183039
O -3.8996769150 1.2118914754 1.2274943828
C -1.7691509134 0.3598238335 0.4908779994
O -1.2107355119 -0.4560265972 -0.5481190386
C 0.1337461303 -0.6967206848 -0.5188196729
C 0.9984070382 -0.2035057851 0.4622439761
C 2.3556066645 -0.5144076268 0.3992633276
C 2.8381177652 -1.3026040727 -0.6350980412
C 1.9832084213 -1.7947805471 -1.6153716933
C 0.6295451394 -1.4950926249 -1.5549104681
O 4.1820321173 -1.6703840004 -0.6685330237
C 5.1087387372 -0.7222880476 -1.0487618086
C 6.4470963297 -1.0707627089 -0.8596617849
C 7.4451254174 -0.1818232040 -1.2406459525
C 7.1190348596 1.0520548548 -1.8047104269
C 5.7798171415 1.3849410227 -1.9883814453
C 4.7650103012 0.5048067865 -1.6147692226
H -6.2544564143 2.4352085940 0.8664375568
H -7.6484342053 2.2652012884 1.9445922471
H -7.2558523009 0.9758768891 0.7972380747
H -6.5205043252 0.3556949740 3.1283762337
H -5.5551933967 1.8206946328 3.2266467838
H -4.1618645688 -0.1469216884 2.7732590489
H -3.3296996227 -1.6675792239 0.8463812008
H -4.2353739231 -1.3599949134 -0.6707925671
H -3.4375374474 0.9051233532 -0.7601885452
H -1.5929596579 -0.0950402281 1.4760374953
H -1.3274685013 1.3644961711 0.4696374834
H 0.6357482910 0.4120346129 1.2761568824
H 3.0376945879 -0.1396406725 1.1559900198
H 2.3797742042 -2.4097650910 -2.4167088060
H -0.0564501915 -1.8716718353 -2.3065681677
H 6.6875819743 -2.0325942493 -0.4182727737
H 8.4852405877 -0.4553589971 -1.0916156716
H 7.9011253319 1.7443728205 -2.0979564234
H 5.5120057624 2.3400849193 -2.4299705694
H 3.7245684920 0.7704485929 -1.7639305461
