44
CONF21
C -5.5460563122 -0.7557838597 -1.1714799984
N -4.0896908904 -0.6797733070 -1.0566943355
C -3.5858653983 -1.3753962371 0.1453472898
C -3.9096534413 -0.4254034732 1.3350027307
C -3.9341403610 0.9812160515 0.6828133086
C -3.6175877066 0.6988985857 -0.8140806422
C -2.1091984469 0.7243514737 -1.0956992780
C -1.3900042531 -0.2064403015 -0.1300370517
C -2.0743211313 -1.5668149427 -0.0318069378
O -0.0236640782 -0.3600293121 -0.6226371270
C 0.9133694069 -0.6772656014 0.2915235359
O 0.6931188529 -0.8556263890 1.4705387086
C 2.2870589127 -0.7532419769 -0.3444106773
C 3.1388742022 -1.8277777204 0.3581229050
O 4.4004183995 -1.9821347170 -0.2764170928
C 2.9743836313 0.5972005164 -0.2733008641
C 3.5868083184 1.1322556285 -1.4082925058
C 4.2735244000 2.3415625872 -1.3394616125
C 4.3527062576 3.0311019205 -0.1341202714
C 3.7450595180 2.5035536106 1.0027048527
C 3.0634125140 1.2934978860 0.9365733491
H -5.8412181515 -1.7998572983 -1.3188002914
H -6.0979811944 -0.3665268510 -0.2970375024
H -5.8678320305 -0.1911326848 -2.0527129617
H -4.0710036256 -2.3520154510 0.2444887137
H -4.8804964142 -0.6732247906 1.7723891015
H -3.1664149418 -0.5101196303 2.1333743880
H -3.2088148192 1.6678764643 1.1298812786
H -4.9184886435 1.4461294290 0.7854112689
H -4.1278837754 1.3940925975 -1.4888999033
H -1.7128475488 1.7411476114 -0.9964064836
H -1.9381926393 0.3865531637 -2.1231053640
H -1.3249547215 0.2461979726 0.8645714516
H -1.8964463717 -2.1249181748 -0.9574584934
H -1.6531444005 -2.1305114230 0.8069360109
H 2.1705059092 -1.0294513857 -1.3966356952
H 3.2408249392 -1.5716585460 1.4214601224
H 2.6391675877 -2.7990986803 0.2898200043
H 4.8635404340 -1.1368059835 -0.2143919315
H 4.7451414642 2.7445166634 -2.2301178681
H 4.8853902035 3.9749656031 -0.0795256141
H 3.8019556608 3.0372031563 1.9462005228
H 2.5884131839 0.8859890654 1.8241529332
H 3.5241038115 0.5951042588 -2.3501539269
