50
CONF57
C -2.5391917137 -3.0597284452 -1.2231172232
C -2.4562953207 -1.9620046391 -2.2584926890
C -2.2619097660 -0.5240575607 -1.8461628566
C -1.1193405022 -1.2823602319 -2.5504866535
C 0.1479099420 -1.6757446352 -1.9124810640
O 1.1197929323 -2.0796303518 -2.5162610534
O 0.1311066614 -1.5279258225 -0.5574255609
C 1.3599667076 -1.8530040978 0.1469507929
C 1.4795242346 -3.3093646809 0.2572070051
N 1.5711245480 -4.4569976004 0.3444154591
C 1.2819599944 -1.1583538078 1.4833059913
C 1.8515994303 0.1092083493 1.5859214435
C 1.7188393959 0.8142373845 2.7795228907
C 1.0424519596 0.2579433489 3.8640404006
C 0.4870247664 -1.0104617937 3.7454950133
C 0.5948407012 -1.7246960563 2.5553244702
O 2.2927522372 2.0490186164 2.9773753376
C 2.5022267674 2.8742620159 1.8776615230
C 3.7665770555 3.4273986348 1.7211631812
C 3.9882231270 4.3189488841 0.6732862208
C 2.9581751769 4.6423114140 -0.2066520842
C 1.6948862753 4.0779746399 -0.0319271174
C 1.4569908054 3.1937591136 1.0153971672
C -2.2100744333 -0.1394697484 -0.4281800072
C -2.1844204642 1.1136897320 0.0326046328
C -2.1310840645 2.3336586253 -0.8549812384
F -1.2131451706 2.1774469753 -1.8405696965
F -1.8113952052 3.4593395507 -0.1911504921
F -3.3239438420 2.5606631284 -1.4672033937
Cl -2.2442812781 1.4369369452 1.7515203953
C -3.3336049082 -2.2051883194 -3.4670900427
H -3.5589809153 -3.1119398051 -0.8269973342
H -2.3115003240 -4.0200507236 -1.6967748900
H -1.8509158160 -2.9296048066 -0.3871397205
H -2.7128017187 0.2082531996 -2.5092583871
H -0.9621266576 -1.0106980356 -3.5894789438
H 2.2137184967 -1.4894463148 -0.4352958243
H 2.3885820198 0.5393960539 0.7471239180
H 0.9605890558 0.8247795335 4.7853517459
H -0.0423524747 -1.4420099876 4.5885276940
H 0.1490787946 -2.7100561268 2.4640784782
H 4.5576371091 3.1598514116 2.4137456336
H 4.9732310205 4.7563981659 0.5444637086
H 3.1365486163 5.3337329963 -1.0235856109
H 0.8851186507 4.3336183240 -0.7080543564
H 0.4762547079 2.7557856295 1.1678244024
H -2.2366556115 -0.9308718114 0.3126718442
H -3.2631829578 -1.3853106474 -4.1870872343
H -3.0411778818 -3.1343249004 -3.9672459328
H -4.3783502536 -2.3003112961 -3.1518799214
