38
CONF306
F -1.8344285947 0.2136795990 1.5155403191
C -1.6355346280 -0.2322307569 0.2524675580
F -1.4088935156 -1.5638835696 0.3036189538
C -0.4061867006 0.4931287945 -0.3738669127
F -0.4633517927 0.3427689933 -1.7146834113
F -0.4784180806 1.8052437906 -0.0616190218
C 0.9703250420 -0.0665167533 0.1331778893
F 0.8823599302 -0.2843192168 1.4666703455
F 1.2182407398 -1.2392158439 -0.4911706881
C 2.1690760232 0.9103648479 -0.1316901376
F 2.0328417499 1.4482021402 -1.3641463782
F 2.1317734083 1.9002947023 0.7892399446
C 3.5669805552 0.2077151336 -0.0541605406
F 3.5871833632 -0.6414092937 0.9998301869
F 3.7704862692 -0.4894047413 -1.1912330053
C 4.7645135963 1.1999035889 0.1156470382
F 5.9091535765 0.5337862647 -0.0861956433
F 4.6768993004 2.1927984622 -0.7805024981
F 4.7860089387 1.7195395976 1.3473167591
S -3.2570191141 0.0639181480 -0.7407469280
O -3.2399856426 -0.9230600324 -1.8179156401
O -3.2765589911 1.5110257174 -0.9533484020
N -4.4176956931 -0.3583731546 0.3510257232
C -5.1284642101 -1.6466855490 0.2195335639
C -4.3865134158 -2.8006107777 0.8821786755
O -4.1164637779 -2.5445854852 2.2574259681
C -4.9721030546 0.6765168935 1.2523757200
C -6.1986560719 1.3708286168 0.6748720651
H -6.0936667550 -1.5044852861 0.7157475667
H -5.3185114764 -1.8751329169 -0.8345386400
H -5.0268256406 -3.6890461313 0.8489571329
H -3.4675160278 -3.0309668732 0.3268009937
H -5.2049620012 0.1699219640 2.1957385978
H -4.1882021496 1.4085902856 1.4607588714
H -6.5911122585 2.0896005367 1.4007685043
H -5.9365492340 1.9084578404 -0.2394446011
H -6.9957091052 0.6570200488 0.4460468470
H -3.3829021105 -1.9203965661 2.3026641025
