48
CONF40
C -4.3705481247 -3.6286179416 2.9370297411
O -3.2658434496 -2.7274475892 3.0861924103
N -3.3038418348 -1.8075028110 2.0557997884
C -2.3052803715 -0.9891572418 2.0845130550
C -1.2482100906 -0.9785788630 3.1243070711
C -1.5768723539 -0.7752122294 4.4672287407
C -0.5939505330 -0.7881570817 5.4466583563
C 0.7333516960 -1.0272619346 5.0995318541
C 1.0809248043 -1.2414148510 3.7715470811
C 0.0893485029 -1.2033557616 2.8037247137
O 0.3781512135 -1.4932071909 1.4671010990
C 1.0903805064 -0.6000411338 0.7441544283
C 1.0029497162 -0.7110920774 -0.6402302274
C 1.7076948948 0.2185331453 -1.3923343553
N 2.4543280761 1.1589460875 -0.8310253335
C 2.4825881738 1.1605077782 0.5017669451
N 1.8418247988 0.3295983721 1.3196162324
O 1.5672923837 0.1588175589 -2.7434856871
C 2.3967952828 0.9706093979 -3.5065681710
C 1.8510791638 2.0823045421 -4.1292990510
C 2.6380492291 2.8629584367 -4.9677128567
C 3.9716412622 2.5274191374 -5.1779579949
C 4.5208430752 1.4106133194 -4.5572032224
C 3.7305125103 0.6286369616 -3.7235581661
Cl 4.4020862609 -0.7827833463 -2.9530782584
F 0.2280528509 -1.6394101965 -1.2213510821
C -2.2629302504 -0.0098710851 0.9892774307
N -1.3916280947 0.9394138882 1.0940178681
O -1.2712694441 1.8398919861 0.0305551366
C -1.8715692233 1.4026829134 -1.1974522867
C -3.2616769955 0.8898698870 -0.9146783763
O -3.1563563070 -0.2189926790 -0.0060308093
H -4.2859872662 -4.3251650122 3.7733662364
H -5.3214038585 -3.0877675089 2.9892657506
H -4.3017605497 -4.1688467529 1.9871216212
H -2.6140144559 -0.6020887825 4.7314527764
H -0.8638484691 -0.6180909953 6.4834063346
H 1.5029989167 -1.0479641778 5.8638763980
H 2.1063223767 -1.4282479324 3.4786236538
H 3.0953836462 1.9276718146 0.9712059893
H 0.8103841530 2.3214228054 -3.9403023240
H 2.2094317921 3.7332857871 -5.4521773660
H 4.5924200672 3.1327530650 -5.8294134183
H 5.5573040263 1.1365948602 -4.7164121827
H -1.8815581928 2.2813965152 -1.8482677684
H -1.2616316518 0.6090959518 -1.6519617557
H -3.8804156459 1.6739982410 -0.4608502768
H -3.7515423278 0.5032528295 -1.8112644570
