42
CONF48
C -2.2018703320 -1.2501996747 0.6079448754
C -3.0941392232 -0.1573681254 0.0069134098
C -2.4035162195 1.1931092915 -0.2206120409
C -1.9979029936 1.8920085744 1.0791317662
C -1.4384933042 3.3042150857 0.8851545610
C -0.1259129924 3.3401679147 0.0956814899
C 0.9653842186 2.5775879610 0.8069704056
O 1.1659787337 2.5969459871 1.9992652804
O 1.7191011201 1.8601274693 -0.0627698311
C 2.7847288582 1.0899695567 0.5413496471
C 3.5216794065 0.3922722359 -0.5729493611
O 2.6627050675 -0.5306448643 -1.2801842855
C 2.4866971504 -1.7438393182 -0.6940582991
O 3.0132421998 -2.0685308480 0.3454220996
C 1.5782652151 -2.6162432852 -1.5225562685
C 0.7109782583 -3.5403542537 -0.6646300966
C -0.2114197717 -2.8044509942 0.3124975808
C -1.1099975665 -1.7503553381 -0.3386104662
H -2.8322804227 -2.1026204815 0.8928397601
H -1.7424152984 -0.8935625006 1.5389531792
H -3.9585447021 0.0008123322 0.6653992392
H -3.4972682018 -0.5204348685 -0.9480565984
H -1.5271957851 1.0544058694 -0.8659613324
H -3.0875879858 1.8502834644 -0.7747352869
H -1.2568150153 1.2914721286 1.6211189043
H -2.8764204052 1.9518553514 1.7349875194
H -2.1749791444 3.9261868074 0.3614883659
H -1.2641142965 3.7607912461 1.8647428694
H -0.2424239385 2.9543380176 -0.9198600235
H 0.2237862615 4.3769308227 0.0070720198
H 3.4637806688 1.7583424035 1.0834591143
H 2.3630903031 0.3755498841 1.2539172245
H 4.3829211226 -0.1421473873 -0.1598434577
H 3.8486105229 1.1080957050 -1.3306711058
H 0.9773660295 -1.9862069494 -2.1832825410
H 2.2317998393 -3.2158455648 -2.1702374978
H 0.1076908002 -4.1569236925 -1.3423421372
H 1.3620611661 -4.2192871824 -0.1043289871
H -0.8392360649 -3.5499854131 0.8175857549
H 0.3909486799 -2.3317533610 1.0985385583
H -1.5819124368 -2.1696270647 -1.2398561148
H -0.4963691245 -0.9050866394 -0.6768361905
