39
CONF11
C -4.9768928113 3.2027418673 -0.7699426684
N -3.8288079669 2.3464123768 -0.5221036573
C -3.7589246280 1.0049059756 -0.6384658912
C -2.4533960913 0.6306811293 -0.3563734871
C -1.8108585391 1.8659680513 -0.0734300588
N -2.6536749983 2.8947958097 -0.1777771113
C -0.4247018836 2.1842382331 0.3475300862
F -0.1050611027 1.5187843479 1.5086800718
F 0.4852726591 1.7473599178 -0.6041455178
C -2.0745086562 -0.8032790656 -0.3852166124
O -2.9537736098 -1.6528488969 -0.4916594665
N -0.7337289690 -1.0876882227 -0.3064635023
C -0.1141151583 -2.3489817499 -0.3770985568
C 1.2968473341 -2.3867778042 -0.3474690319
C 1.9581525492 -3.6078011001 -0.4692867024
C 1.2220025213 -4.7709949407 -0.5983151082
C -0.1597710249 -4.7597249992 -0.6096131964
C -0.8301492805 -3.5476629777 -0.5017332420
F 1.8768409979 -5.9494816541 -0.7099121994
C 2.1116456961 -1.1532500456 -0.1936226063
C 2.2225059539 -0.5360423849 1.0523130642
C 3.0122692818 0.5979020065 1.2111233290
C 3.6931473650 1.1317470652 0.1151301761
C 3.5854523002 0.5192507277 -1.1296804024
C 2.8031560667 -0.6160548052 -1.2823255864
Cl 4.6727073545 2.5614122839 0.2726120054
Cl 3.1296659183 1.3286390601 2.7847554784
H -5.8710073867 2.5805490283 -0.8316080368
H -4.8457253096 3.7509399358 -1.7075605836
H -5.0799201189 3.9141087562 0.0520563902
H -4.6045519239 0.3880131657 -0.9023228034
H -0.2731126356 3.2569467854 0.4999476541
H 1.6948567764 -0.9389115763 1.9096306256
H 3.0415272804 -3.6478580370 -0.4476473821
H -0.7084257269 -5.6895938829 -0.7066908426
H 4.1166809176 0.9437488751 -1.9735726425
H 2.7207721315 -1.0888413761 -2.2552501463
H -1.9087795494 -3.5195484071 -0.5227852337
H -0.0965020736 -0.3034174195 -0.2794402575
