46
CONF198
C -1.0944656769 -1.4050038498 2.7511886054
C -1.6823091743 -0.2753554209 1.9404763350
O -1.1718489025 -0.3793874230 0.5717547909
P -2.1684916225 -0.3141567295 -0.6865208005
S -3.6865355248 -1.5465561854 -0.6626028730
N -2.5951270381 1.2562646030 -0.8824172861
C -1.6181237662 2.3692820779 -0.9496751547
C -2.0827548581 3.5045822802 -0.0426374988
C -1.4204918784 2.8304114526 -2.3910478054
O -1.0518538680 -0.5912479089 -1.8578594245
C -0.2255810195 -1.7085528429 -1.8077997595
C -0.6613649159 -2.8884327491 -2.3963553720
C 0.1561757137 -4.0143925426 -2.3634436763
C 1.3959150053 -3.9621281290 -1.7311768879
C 1.8214796351 -2.7788827069 -1.1390701212
C 1.0240864592 -1.6305257401 -1.1809829919
C 1.5368163688 -0.3448460554 -0.6311267469
O 1.4303793670 0.7291689461 -1.1939067858
O 2.1750200714 -0.5354719635 0.5322490682
C 2.8054286128 0.6428505078 1.1570539410
C 1.7570310873 1.4107685319 1.9392584378
C 3.9179187584 0.0955457337 2.0259926953
H -1.4336921394 -2.3717158673 2.3679408776
H -0.0013911213 -1.3745450358 2.7200225594
H -1.4152093644 -1.3091200887 3.7931588881
H -2.7765254348 -0.3189660336 1.9273158436
H -1.3701164230 0.7048020014 2.3130594205
H -3.4995177769 1.4334918022 -1.3023275487
H -0.6686516267 1.9744801055 -0.5715357451
H -3.0487100974 3.8946291630 -0.3827753208
H -2.1896525925 3.1590121429 0.9896287831
H -1.3566815910 4.3229832157 -0.0649296761
H -2.3622535404 3.2127079402 -2.8010304316
H -0.6792402552 3.6347238022 -2.4294150390
H -1.0727436591 2.0061645504 -3.0198308189
H -1.6367562047 -2.9125415728 -2.8689010901
H -0.1820911712 -4.9341228482 -2.8296145324
H 2.0326751239 -4.8398645916 -1.7022217312
H 2.7897838069 -2.7275524927 -0.6531312283
H 3.2100952584 1.2590912269 0.3485194138
H 0.9469120295 1.7512088708 1.2893409956
H 1.3397409563 0.7820958234 2.7322300114
H 2.2217777638 2.2872376129 2.4010611543
H 4.6357327211 -0.4741880604 1.4297090030
H 4.4444805972 0.9272414576 2.5027254764
H 3.5107318013 -0.5511865973 2.8096500410
