63
CONF22
C 4.4530425000 2.8301462409 -0.3722562900
O 3.6146016728 2.1799160260 0.6164643744
C 4.1625167433 1.1068881709 1.1883195122
O 5.2696080291 0.6680434842 0.9874033915
O 3.2599185441 0.6284119913 2.0780115934
C 3.5486660162 -0.6707110256 2.6160232340
O 3.1680150461 -1.6728290204 1.6908475053
C 1.8138290453 -1.8161788045 1.5698927276
C 1.1476575489 -1.3825429337 0.4493608715
C 1.8265206437 -0.8346476973 -0.7790353195
O 3.0316746724 -0.6003477382 -0.8051731110
N 1.0245448250 -0.6644650861 -1.8728330381
C 1.6080415665 -0.6778985192 -3.2178429470
C 1.4138447797 -2.0794599572 -3.7923772585
O 0.0278787849 -2.4515902259 -3.7885326631
C -0.5261495862 -2.4542718280 -2.4718604327
C -0.3949216338 -1.0492773852 -1.8796960185
N -0.9910206392 -0.9103833056 -0.5707025402
N -0.2168271857 -1.6192309581 0.3717489877
C -0.8932230010 -2.2902510854 1.3395567012
C -0.2626413035 -2.7609958377 2.4480257847
C 1.1357726009 -2.5251366667 2.6657254350
O 1.7615512034 -2.8954798824 3.6774015070
C -1.1332849784 0.5436765750 -0.1514622832
C -2.0620543588 1.2845479992 -1.0845428396
C -3.3845447982 0.8652260493 -1.3124124052
C -3.9432867914 -0.3650729343 -0.6777299425
S -4.2657446987 -0.1340569264 1.1158764491
C -2.7429513988 0.3700123815 1.8960176894
C -2.8955078655 0.4905781929 3.2877445064
C -1.8409145032 0.8720904817 4.1007415067
C -0.6006978114 1.1624030740 3.5373479326
C -0.4471329891 1.0551214069 2.1644538133
C -1.4909416870 0.6527921314 1.3161289662
C -4.1791599535 1.6472719825 -2.1421993903
C -3.6928517613 2.8020069452 -2.7418052972
C -2.3931839246 3.2133394742 -2.5267099935
C -1.5844159535 2.4441161407 -1.6962701678
F -4.5132869487 3.5097222603 -3.5409090289
F -5.4564096461 1.2933136189 -2.3873192524
H 5.3786455042 3.1796313271 0.0903953723
H 3.8638638897 3.6705257131 -0.7362128444
H 4.6762031522 2.1341039331 -1.1839962420
H 2.9654474795 -0.7310869520 3.5360757397
H 4.6186840532 -0.7938825374 2.7820239733
H 2.6669830850 -0.4212763689 -3.1560712679
H 1.0879005100 0.0648453190 -3.8335546254
H 1.7384395287 -2.1144948993 -4.8354563261
H 1.9978196178 -2.8039437639 -3.2033150390
H -0.0108924907 -3.1902518568 -1.8342124182
H -1.5811445553 -2.7240159145 -2.5692730752
H -0.9175808247 -0.3517496762 -2.5461744344
H -1.9550300884 -2.4083175494 1.1555896466
H -0.8264674710 -3.3145898966 3.1898101017
H -0.1538181835 1.0286580005 -0.2517478194
H -3.2864536817 -1.2227953040 -0.8198513054
H -4.9310072277 -0.6039723112 -1.0773868632
H -3.8617284267 0.2720845681 3.7345236656
H -1.9931264015 0.9457200211 5.1727302957
H 0.2354925815 1.4681356317 4.1569734809
H 0.5189766445 1.2806552079 1.7217911352
H -2.0278201888 4.1149757950 -3.0055852036
H -0.5599200468 2.7562440216 -1.5206557174
