42
CONF7
C -3.8614021849 3.7757912943 1.2846364028
C -4.0025119899 2.6944725043 0.4160882644
C -2.8907195622 1.9510448936 0.0330947842
C -1.6193421323 2.2801349616 0.5116626074
C -1.4859118152 3.3672909317 1.3780937604
C -2.5989041387 4.1108793581 1.7649630974
C -0.3898965831 1.4814060520 0.1403624826
C -0.3999785716 0.0552254582 0.6692995206
C 0.3286670766 -0.2670455427 1.8171932727
C 0.3510576100 -1.5726516925 2.2965481979
C -0.3514540596 -2.5744920178 1.6298512286
C -1.0878851725 -2.2603365734 0.4905369990
C -1.1138621447 -0.9529791164 0.0137647746
C -0.0883308490 1.4635897375 -1.3567347866
O -0.7917133893 1.9762609030 -2.1973419566
C 1.1834543483 0.7220197420 -1.7914895884
C 0.8666447314 -0.6652447711 -2.3967849596
O 0.0595357096 -0.8880381179 -3.2729983546
C 1.7451185266 -1.6480236937 -1.7280402510
C 1.8342557213 -3.0166729612 -1.9557462295
C 2.7486333657 -3.7397352852 -1.1956364917
C 3.5508597508 -3.1082110670 -0.2344960198
C 3.4598796919 -1.7377892805 -0.0109241800
C 2.5458993407 -1.0174462814 -0.7717213068
C 2.2541233252 0.4300660025 -0.7375748332
O 2.7965589719 1.2619344613 -0.0342248012
H -4.7309192530 4.3531560316 1.5828601843
H -4.9832525021 2.4290931950 0.0333407292
H -3.0191671455 1.1150281936 -0.6454907542
H -0.5018682653 3.6335164038 1.7546834248
H -2.4768029403 4.9515701707 2.4409870239
H 0.4798102217 1.9775268181 0.5905608836
H 0.8933912114 0.5091388647 2.3260295200
H 0.9269289697 -1.8100331900 3.1856131964
H -0.3236554287 -3.5958001928 1.9962521510
H -1.6352462960 -3.0353877414 -0.0367015354
H -1.6805945756 -0.7276877174 -0.8850317944
H 1.6268737249 1.3337396465 -2.5884106501
H 1.2088300906 -3.4991878197 -2.6994800199
H 2.8448202232 -4.8101414882 -1.3457291590
H 4.2522650878 -3.7018880516 0.3426922587
H 4.0758125967 -1.2440933342 0.7334948914
