44
CONF108
C -5.2143539476 0.2256289368 1.3656373297
C -3.7944133539 -0.2788615456 1.3276809166
C -3.5974947027 -1.7328777789 1.7276056374
O -2.4410984153 -2.1455498676 0.9681120748
C -2.2114382132 -1.1669339287 -0.0534353331
O -3.3321288042 -0.3141272118 -0.0469295500
C -2.1678702689 -1.9040240089 -1.4080734777
N -1.7109198382 -1.0476836470 -2.4866214731
C -0.4580165487 -0.9237874153 -2.9702638413
N -0.4043313509 0.0561771201 -3.8639612235
C -1.6874684671 0.5168344276 -3.8775176906
N -2.5162194487 -0.1171738373 -3.0574506149
C -0.9212919558 -0.3832227738 0.2085573813
C -0.9428514278 1.0099888608 0.0864395318
C 0.1972511676 1.7865340890 0.2260969603
C 1.4098688572 1.1613451864 0.4923983605
C 1.4809961912 -0.2217538773 0.6285698675
C 0.3199368081 -0.9692463332 0.4757413276
Cl 0.5113489571 -2.7169964658 0.6167356449
O 2.5076633764 1.9713265378 0.6761985378
C 3.7588883396 1.5048615785 0.3042051018
C 4.8088497230 1.7294091962 1.1863013413
C 6.0994088589 1.3536748109 0.8268177886
C 6.3061897389 0.7523153597 -0.4083756457
C 5.2597096806 0.5266139234 -1.2961857333
C 3.9731921653 0.9119315554 -0.9374175873
Cl 7.9361559136 0.2660930868 -0.8643060461
H -5.5806205579 0.2072549537 2.3963742536
H -5.8610030426 -0.4072792791 0.7507159696
H -5.2667351597 1.2550798242 1.0018573251
H -3.1263654178 0.3714586060 1.9116833087
H -3.3834975735 -1.8621989277 2.7918361030
H -4.4640075123 -2.3419782724 1.4385820219
H -1.4742069410 -2.7432186390 -1.3314535988
H -3.1698510710 -2.2767701469 -1.6337584281
H 0.3568687492 -1.5626670011 -2.6538184084
H -2.0238279084 1.3290776625 -4.5097344734
H -1.8881960756 1.4896510897 -0.1391284007
H 0.1574234352 2.8650761504 0.1218986425
H 2.4222723362 -0.7117349870 0.8472027939
H 4.6158919830 2.1968928372 2.1457588411
H 6.9276521743 1.5225574337 1.5053688819
H 5.4424464385 0.0653183569 -2.2599509658
H 3.1461921248 0.7529845671 -1.6215158267
