65
CONF260
C -3.8432618984 1.9882049907 -3.0974399756
C -3.5178033551 0.5064303827 -3.2706821898
C -3.0451410313 -0.1588647970 -1.9715042271
C -2.7726124224 -1.6572756437 -2.1692538748
C -1.7715750881 0.4984527248 -1.4854142649
O -0.7722630186 0.6400808927 -2.1668190729
O -1.8595841833 0.8783753371 -0.1960969549
C -0.6709527033 1.4870494349 0.4034756726
C -0.6678848920 2.9813394787 0.1308553634
C 0.6156202389 3.6151961314 0.6867510430
C 0.9149495913 3.0904953299 2.0593176919
C 0.3320503954 2.0105481359 2.6152457571
C -0.7281259546 1.1952080133 1.8944194111
C -0.5787625756 -0.3030206108 2.2431982751
C -0.7694882680 -0.4601138688 3.7663243042
C 0.1776406540 0.4466688691 4.5036050927
C 0.6845327713 1.5630475956 3.9537073880
C -0.6712756375 -1.9096066576 4.2491935317
C 0.7584143324 -0.8695189932 1.7157062032
C 0.5666981013 -1.7579171943 0.4844526196
C 1.8500053729 -2.0717031857 -0.2548857267
C 1.6593638919 -3.0767178220 -1.3820416508
C 2.8277540201 -3.0778838160 -2.3790293322
C 3.9721249254 -2.1866473473 -1.8752463673
C 3.4363803135 -0.8174192055 -1.5670750466
O 3.8986430783 0.2295820172 -1.9773354891
O 2.3246682945 -0.7899915529 -0.8055777937
O 2.3185667808 -2.5635255956 -3.6222468027
C 1.8199901541 3.4086540591 -0.2502645515
H -2.9594944644 2.5548568571 -2.7819414446
H -4.1988010467 2.4244965972 -4.0355842769
H -4.6219374346 2.1316833529 -2.3404585038
H -4.4058882257 -0.0349420867 -3.6172198450
H -2.7428595484 0.3738777494 -4.0351258980
H -3.8117959884 -0.0298060700 -1.1999367880
H -2.4440658788 -2.1295320154 -1.2379961373
H -3.6868836432 -2.1556335201 -2.5045117163
H -1.9968035823 -1.8072037348 -2.9268210863
H 0.2078609646 1.0195904404 -0.0489514587
H -0.7457631636 3.1657714357 -0.9456885554
H -1.5463161711 3.4254154879 0.6150963118
H 0.4521347365 4.6991932704 0.7660861318
H 1.6741757206 3.6241680441 2.6314277736
H -1.7137954503 1.5232342785 2.2610133742
H -1.4014822177 -0.8444612594 1.7584746307
H -1.7962083460 -0.1234888361 3.9858207225
H 0.4558389101 0.1709443322 5.5194751097
H 1.3861145846 2.1795485157 4.5128045644
H -1.3546682620 -2.5514262404 3.6832679822
H 0.3421511670 -2.3078456680 4.1405525127
H -0.9400899275 -1.9744682205 5.3085307522
H 1.4360169752 -0.0433802981 1.4691845749
H 1.2695821838 -1.4501727702 2.4900199661
H 0.1050612808 -2.7083064374 0.7806771119
H -0.1210080525 -1.2902337258 -0.2306000819
H 2.6194369042 -2.4175376495 0.4481670491
H 0.7392702761 -2.8391521895 -1.9274087508
H 1.5314926980 -4.0662761727 -0.9338977691
H 3.2111551292 -4.0943372659 -2.5295995271
H 4.7682489670 -2.1012480931 -2.6175479694
H 4.3996174370 -2.6245092131 -0.9637611979
H 3.0301620586 -2.6101635057 -4.2745713193
H 1.6284098105 3.8678685493 -1.2257069470
H 2.0202802924 2.3426306839 -0.4015401406
H 2.7221785194 3.8617172804 0.1729315802
