39
CONF331
C 5.3150861065 3.1600631969 2.1639586903
C 5.9482074417 1.8077819256 1.8440079459
C 4.9870562363 0.8792935585 1.1027164129
C 5.6133835392 -0.4725503037 0.7601382964
C 4.6586730610 -1.5217700353 0.1720152254
C 5.4067499664 -2.8074576052 -0.2253306149
C 6.1788025452 -3.4673392057 0.9151758181
C 3.9083547420 -1.0162444029 -1.0532367721
O 2.7948565112 -0.1845494353 -0.6146616426
C 2.0899581406 0.3958211386 -1.6044948092
O 2.3141024391 0.2552221411 -2.7820357811
C 1.0324155217 1.2924452361 -1.0343599851
C 1.3977077888 2.1184935907 0.0244011782
C 0.5143016146 3.0577466993 0.5297002519
C -0.7730513048 3.1771886127 -0.0012658381
C -1.1623222698 2.3230890562 -1.0489825202
C -0.2580374184 1.3852183220 -1.5676546278
Br -0.7996327322 0.1860578529 -2.9310229814
Br -2.9158835290 2.4413363804 -1.7508068800
Br -1.9654494539 4.4678397149 0.6918499619
Br 1.1283898029 4.1536075707 1.9538286517
H 6.0114743485 3.8163466672 2.6943184686
H 5.0023860344 3.6747522500 1.2485493469
H 4.4258139397 3.0364137048 2.7915540366
H 6.8518144420 1.9535491309 1.2375137426
H 6.2759091113 1.3230307298 2.7729213956
H 4.0882397990 0.7214384864 1.7149632003
H 4.6532518326 1.3804731617 0.1846900554
H 6.0597293580 -0.8831118742 1.6737727225
H 6.4444046306 -0.3198590130 0.0550059114
H 3.9087947103 -1.7831331740 0.9329264497
H 6.0939359909 -2.5794730744 -1.0523923906
H 4.6755010499 -3.5233009283 -0.6210413707
H 7.0313329892 -2.8639042296 1.2382910077
H 5.5310868127 -3.6278873241 1.7841557519
H 6.5669186779 -4.4411595758 0.6030645744
H 3.4924544158 -1.8426338528 -1.6399140101
H 4.5530516728 -0.4250438238 -1.7147824944
H 2.3908795888 2.0340027611 0.4469825759
