48
CONF2
C -3.1424543824 1.8365712274 -1.8129857862
C -3.0610886888 1.0176587189 -0.5257172891
C -2.9895704923 1.9196831924 0.7390668255
C -3.8876151246 1.2059917932 1.7419208736
N -4.9742598800 0.7273337506 0.8798633941
C -4.3287782082 0.1252507525 -0.2802608886
N -3.8043855494 -1.2522788526 -0.0689018152
C -2.4458040067 -1.2804867179 -0.3282260223
C -1.9416431784 0.0069385506 -0.5643969681
C -0.5976201624 0.2047659584 -0.8152533795
C 0.2374944264 -0.9122236426 -0.8375654917
C -0.2468956908 -2.1941525575 -0.6316396981
C -1.6067645603 -2.3960288924 -0.3803925972
O 1.5958282896 -0.7554152981 -1.1641165910
C 2.4093358916 -0.2467166017 -0.1780704048
O 2.0344746325 0.0245880930 0.9448356400
N 3.6661817715 -0.1161091016 -0.6872389232
C 4.8201846207 0.3578453585 -0.0416019083
C 5.9930825785 0.4100939204 -0.8082251129
C 7.1775968575 0.8661432124 -0.2462332009
C 7.2151392843 1.2770499615 1.0851371055
C 6.0488720586 1.2229845799 1.8426630530
C 4.8511114740 0.7682105348 1.2962990085
C -4.6178504429 -2.3997905176 -0.4470838986
C -5.9652222918 -0.0959034511 1.5588321412
H -2.2587908317 2.4758409502 -1.9125646020
H -3.1960236584 1.1836194664 -2.6896793256
H -4.0295096209 2.4787965891 -1.7963693240
H -1.9619619543 2.0459069277 1.0888748801
H -3.4037573648 2.9067838717 0.5084662559
H -4.2830702948 1.8658854077 2.5216914659
H -5.0326411846 0.1114142917 -1.1256334833
H -0.1904069760 1.1937678581 -1.0055133537
H 0.4369334539 -3.0357941973 -0.6724628931
H -1.9879660552 -3.3992666012 -0.2238393571
H 3.7763435542 -0.3900692024 -1.6534945862
H 5.9693098711 0.0911930471 -1.8467059727
H 8.0755591507 0.8997481062 -0.8553209570
H 8.1407792986 1.6336563107 1.5244893448
H 6.0616503097 1.5389079694 2.8813733733
H 3.9545255508 0.7318519143 1.8980192970
H -5.6747713754 -2.1460262806 -0.3488574446
H -4.4276666463 -2.7123625043 -1.4867666681
H -4.4178799165 -3.2527734116 0.2112988093
H -6.4148276647 0.4823939894 2.3729039636
H -5.5384526524 -1.0190728866 1.9896096857
H -6.7619770324 -0.3749883696 0.8601358662
H -3.3513483846 0.3738394567 2.2375383020
