23
CONF2
C -1.0879042538 0.5755692180 0.5204500544
C -1.0210392193 -0.8120315510 0.4988867599
C -2.1942759533 -1.5613346886 0.6086349744
C -3.4179470334 -0.9246838315 0.7370361767
C -3.4880577697 0.4666420498 0.7504455675
C -2.3170594040 1.2152221059 0.6419693918
Br -2.3276067856 3.1125906927 0.6552075051
Br -5.1980701229 1.2728241619 0.9152462748
Br -2.1168070558 -3.4552609057 0.5751678543
O 0.1637873183 -1.4976255115 0.4066345477
C 1.2800795064 -0.8140592192 -0.0170661909
C 2.2656882165 -0.5256964189 0.9158556717
C 3.4443787654 0.0992411426 0.5214464621
C 3.6294505905 0.4428633477 -0.8193324469
C 2.6408039928 0.1506236092 -1.7562368381
C 1.4706533967 -0.4809315881 -1.3595706443
Br 0.1488612451 -0.9086591501 -2.6476877701
Br 5.2051784725 1.3007589136 -1.4323428143
Br 4.7496126951 0.4619584147 1.8466983465
H -0.1808630194 1.1624276401 0.4403620573
H 2.7920427122 0.4080541721 -2.7967461082
H 2.1013650291 -0.7979383389 1.9515192233
H -4.3243781587 -1.5107486978 0.8192646856
