50
CONF108
C 1.0587147363 -0.0001047793 -1.7953628999
C -0.4267800382 -0.1413072099 -2.0288614713
C -1.0299521447 -1.4639587542 -2.4309149498
C -1.2932839104 -0.9063834954 -1.0241024336
C -0.6760042722 -1.5191494199 0.1566941727
O 0.2576065114 -2.2898800196 0.1987085203
O -1.3008281176 -1.0539468693 1.2878938832
C -0.6435150243 -1.4147179360 2.5183407544
C -1.6172820458 -1.1453225104 3.5776623822
N -2.3508808188 -0.9284471705 4.4424923768
C 0.6288983586 -0.6132928172 2.7473314412
C 0.7666311969 0.6404552693 2.1571038781
C 1.9349576579 1.3637063738 2.3845637040
C 2.9463963371 0.8513526413 3.1976358124
C 2.7862450163 -0.4002498055 3.7774047188
C 1.6288024598 -1.1436499100 3.5566167690
O 2.1919226996 2.5814391270 1.7981945751
C 1.1468645321 3.2982491931 1.2246242310
C 0.0574409660 3.7076030386 1.9881348357
C -0.9314364830 4.4808786019 1.3875325421
C -0.8245775815 4.8481712513 0.0463908331
C 0.2805252359 4.4416774015 -0.6969217853
C 1.2735959044 3.6595002283 -0.1107292110
C -0.1903363185 -2.6512175381 -2.6418717554
C -0.5965172105 -3.8119434864 -3.1640989176
C -2.0160823759 -4.1380228610 -3.5551622560
F -2.3095903349 -3.6854339218 -4.8040207863
F -2.9041810752 -3.5631603510 -2.7111335364
F -2.2690992796 -5.4606745880 -3.5497912830
Cl 0.5550704369 -5.0842051701 -3.5168296005
C -1.0693086499 1.1001286711 -2.6065401155
H 1.5064018870 -0.8594195279 -1.2954645844
H 1.5658679641 0.1517761728 -2.7540746614
H 1.2412073810 0.8816361505 -1.1721806709
H -1.9114471081 -1.3908857715 -3.0593923627
H -2.2837275151 -0.4982551268 -0.8542839178
H -0.4132382928 -2.4872331126 2.5246536518
H -0.0149590420 1.0382994287 1.5206541543
H 3.8469982757 1.4349829410 3.3555553812
H 3.5755375947 -0.8032076649 4.4035295689
H 1.5090204392 -2.1252207940 4.0040413798
H -0.0117371281 3.4220843922 3.0329642569
H -1.7852958722 4.8040600618 1.9745612748
H -1.5982231494 5.4533362411 -0.4145750435
H 0.3723158234 4.7278028772 -1.7399850606
H 2.1413355051 3.3316194855 -0.6734277100
H 0.8638747899 -2.5708899447 -2.4019315406
H -2.1393357813 0.9574004331 -2.7795592849
H -0.9355206276 1.9452668505 -1.9222119118
H -0.5930916122 1.3537541131 -3.5598573213
