52
CONF95
C 2.5475866630 -0.9380770421 -2.3065573530
C 2.0158348801 0.4125763204 -1.8844917394
C 2.8062048810 1.5836231786 -2.4732440888
C 2.3278987448 2.9208920020 -1.8953125599
C 2.3544436169 2.8804013852 -0.3597032387
C 1.6922779445 1.6168407082 0.1851058635
O 2.1025197271 0.4428569057 -0.4291087094
O 0.2598097921 1.8730885374 0.0293224698
C -0.6005340835 0.8113454571 -0.0278790404
C -0.7172817125 -0.1421985267 0.9471414477
O -1.5469486726 -1.2120140232 0.7803593932
C -2.3359502605 -1.3338900765 -0.3255086870
C -3.1424460165 -2.4584212545 -0.3926969258
C -3.9655559420 -2.5934317154 -1.5116954819
C -3.9855845811 -1.6414842204 -2.5385420426
C -3.1679862119 -0.5281699739 -2.4496794424
C -2.3208910362 -0.3460625828 -1.3205360156
C -1.4268179755 0.7708480284 -1.2120227530
O -1.3392483184 1.6591439976 -2.1070124710
O -3.1717676414 0.3829724758 -3.4369210984
O -4.7919173439 -3.6562573918 -1.6637322495
C -0.0213654481 -0.1835973673 2.2271510185
C 0.3963715077 -1.4166639280 2.7508567235
C 1.0393351420 -1.4711620796 3.9752114353
C 1.2597767851 -0.2866534128 4.7015192734
C 0.8289083522 0.9337402780 4.1924770012
C 0.1940951723 0.9906012225 2.9587065148
O 1.9011759021 -0.4373744687 5.8928973898
O 1.4535314831 -2.6755984165 4.4564261573
O 3.6986163938 2.8297798702 0.1215670740
O 1.0549621724 3.2856349344 -2.4288526025
O 2.6956615134 1.5959540046 -3.8944126643
H 2.4925861297 -1.0327150220 -3.3932093792
H 3.5907203098 -1.0504473588 -1.9937575219
H 1.9528701402 -1.7370725345 -1.8545974808
H 0.9621407703 0.5040983178 -2.1841357740
H 3.8667688874 1.4484275320 -2.2301520435
H 3.0167091677 3.7081460616 -2.2280157061
H 1.8182771032 3.7529794743 0.0388866293
H 1.9282943971 1.4928627125 1.2470264577
H -3.1289944690 -3.1960290343 0.4020415336
H -4.6337243943 -1.7791607058 -3.3963289210
H 0.2388524942 -2.3373762359 2.2001971759
H 0.9905818269 1.8398741294 4.7695492170
H -0.1506754594 1.9435333494 2.5744579637
H 2.0206312504 0.4213065676 6.3211555207
H 1.8885334693 -2.5402263427 5.3109263138
H 4.1314676517 3.6590394459 -0.1170516240
H 0.3508505569 2.7117435910 -2.0671237206
H 1.8513705104 2.0315117219 -4.0911731137
H -4.7047807863 -4.2527649954 -0.9070486003
H -2.5007227326 1.0728190399 -3.1772701269
