21
CONF3
C -2.0610515663 2.0152053962 0.2212370770
C -2.2110078445 0.7146720576 -0.5406265186
O -3.2676188352 0.4265671701 -1.0745612366
C -1.0352677682 -0.2079590965 -0.6229420223
C -1.1813187602 -1.4041449129 -1.3266609051
C -0.1082526771 -2.2825708089 -1.4204409390
C 1.1063614810 -1.9821080162 -0.8216282036
C 1.2579437365 -0.7843127369 -0.1153087686
C 0.1889152571 0.1049064152 -0.0143244801
O 2.4879065186 -0.5798410274 0.4370266986
C 2.6930475174 0.6285340389 1.1617214657
H -1.7974235353 1.8249117853 1.2672956682
H -1.2651262100 2.6305697469 -0.2121211852
H -3.0050099939 2.5578444256 0.1772661394
H -2.1372403098 -1.6221855246 -1.7879512949
H -0.2161686743 -3.2142066121 -1.9665894886
H 1.9528591228 -2.6572438653 -0.8859880078
H 0.2981816958 1.0328544927 0.5306258336
H 2.5568912948 1.5080863141 0.5186314736
H 3.7251829459 0.5938274132 1.5122578132
H 2.0181962131 0.6965931439 2.0252705708
