41
CONF3
C -3.0534441549 0.4686748628 3.0304691744
C -2.4689544588 -0.0538098109 1.7192412311
C -0.9490075252 0.1487291036 1.6846444062
C -0.3759681266 -0.3373179821 0.3679089879
C -1.0090095891 0.3712326193 -0.8196604122
C -2.5422889266 0.2051102371 -0.8487388618
C -3.1156809987 0.6374204168 0.5141097561
C -3.1113024630 1.1133709607 -1.9446068699
C -2.9251265487 -1.2467839269 -1.1731389713
O 1.0612966994 -0.0237502332 0.4058560121
C 1.8789019172 -0.7540104650 -0.3540391133
O 1.4863612697 -1.6841628955 -1.0667208876
C 3.2888894710 -0.3551982326 -0.2606348937
C 3.7085365442 0.7058363308 0.5589010010
C 5.0426612532 1.0639490750 0.6324540505
C 5.9865549351 0.3577660829 -0.1222199520
C 5.6016009443 -0.6919559975 -0.9392386747
C 4.2541347862 -1.0607311771 -1.0194152207
O 3.9286601101 -2.0873880354 -1.8280339695
H -2.8698065254 1.5451400246 3.1296161138
H -4.1355276188 0.3052670798 3.0695369162
H -2.6011316021 -0.0331162868 3.8924552870
H -2.6722173731 -1.1324372298 1.6620459438
H -0.4727152404 -0.3810050065 2.5176948643
H -0.7250666555 1.2193844100 1.7957317306
H -0.4706659844 -1.4236422431 0.2811794722
H -0.7672095265 1.4398688910 -0.7393988382
H -0.5768278634 -0.0002306195 -1.7560192009
H -2.9676872367 1.7224331632 0.6239179029
H -4.1996038568 0.4613874898 0.5224375866
H -4.2029203805 1.0262142995 -1.9870025754
H -2.7097108013 0.8374427083 -2.9263397364
H -2.8585101714 2.1620955735 -1.7530755729
H -2.5571622718 -1.9579688657 -0.4286593262
H -4.0152400507 -1.3467445509 -1.2197302491
H -2.5145307492 -1.5390354486 -2.1460324930
H 2.9667180980 1.2435271101 1.1377489252
H 5.3533347034 1.8846896139 1.2693338734
H 7.0356691161 0.6325221009 -0.0701116441
H 6.3267227437 -1.2444422087 -1.5276241165
H 2.9472726159 -2.1983306468 -1.7542012537
