82
CONF323
C -3.6865938715 2.3159381851 -2.0937688474
C -2.4974426719 2.2915190706 -1.1712819656
C -1.5017998747 3.1752729669 -1.3095873492
C -2.4889577450 1.2903901302 -0.0371416847
C -3.4460755158 1.7168328515 1.1022374973
C -3.6801458934 0.4288417074 1.8884906264
C -3.8203296129 -0.6655306512 0.8087351233
C -2.9406825276 -0.1572528403 -0.3868758407
C -1.9242148326 -1.2246774426 -0.8650814708
C -1.0807694352 -0.7641647310 -2.0544762540
C 0.2281132306 -0.0963381540 -1.6603436254
C 1.1207752103 -1.0439253077 -0.8406167072
C 2.6123449215 -0.5273875098 -0.6364260708
C 3.0379075091 0.3829487898 -1.8054022972
C 4.4951237039 0.8705128835 -1.6935800776
C 4.9887549838 1.0299625665 -0.2512261669
C 3.8547502742 1.4301707189 0.7091909932
C 2.7738207646 0.2776451404 0.7048585851
C 1.4235790652 0.8162192065 1.1827706532
C 0.3756560278 -0.2628966574 1.4613707798
C 0.3954892645 -1.4690112988 0.4777601382
C -1.0722500829 -2.0347745145 0.1790778647
C -1.8797966042 -2.1749153636 1.4989865146
C -3.3891074483 -2.0553890070 1.3030676443
C -0.9675579672 -3.4566820048 -0.4285889018
C 1.1775763221 -2.5860384942 1.2069462076
C 4.4253346064 1.5346437001 2.1321856471
C 3.3059631427 2.8170830918 0.3247032316
O 6.1256622858 1.9146098887 -0.2002825805
C 3.5505320521 -1.7579922227 -0.6824976538
C -5.2649056911 -0.7333412442 0.3113141036
O -6.1241239802 -1.2108186725 1.3591086104
H -3.7134449856 3.2436078358 -2.6708622810
H -4.6275232878 2.2190757885 -1.5404325729
H -3.6533587366 1.4801011934 -2.8027290274
H -0.6363192625 3.1563527353 -0.6509489343
H -1.5241379603 3.9403337666 -2.0813154671
H -1.4779980701 1.2825156959 0.3736819796
H -3.0161802785 2.5246664270 1.7029411775
H -4.3903424186 2.0853757789 0.6841685293
H -2.8083592733 0.2225562831 2.5198682738
H -4.5579587610 0.4710704213 2.5411371007
H -3.6122638153 -0.0570774983 -1.2496012695
H -2.6048956607 -1.9853624909 -1.2706317030
H -0.8431599432 -1.6306596675 -2.6861482817
H -1.6732795095 -0.0835287362 -2.6797110755
H 0.0228314105 0.8318084000 -1.1219815775
H 0.7370959562 0.1913110964 -2.5835490493
H 1.2194006391 -1.9507111421 -1.4541780344
H 2.3762181643 1.2513965531 -1.8479425226
H 2.9071360164 -0.1502943470 -2.7553748739
H 5.1779706391 0.2010133901 -2.2279797792
H 4.5730065413 1.8461943000 -2.1912490248
H 5.3960912339 0.0835419488 0.1201295276
H 3.1291811288 -0.4378302813 1.4584849974
H 1.5627697445 1.4028955342 2.0979078287
H 1.0455442959 1.5218570410 0.4354941256
H -0.6049851982 0.2133919652 1.4833317380
H 0.5298452660 -0.6450883679 2.4779383112
H -1.6592795650 -3.1446997539 1.9600233092
H -1.5715934076 -1.4227327946 2.2279730023
H -3.7387299344 -2.8164522492 0.5915342776
H -3.8959305394 -2.2682470561 2.2512658131
H -0.4273716343 -3.4649732213 -1.3804701707
H -1.9738166724 -3.8463877259 -0.6158313011
H -0.4731977730 -4.1565727328 0.2474625859
H 0.5576582802 -3.0121804085 2.0025582808
H 2.0695293537 -2.1838662408 1.6894212912
H 1.4876063451 -3.3951282567 0.5416102098
H 4.9475010890 0.6119575378 2.4102878260
H 3.6251809496 1.7062011074 2.8601234756
H 5.1338900197 2.3646196971 2.2080811826
H 2.5880280063 3.1738749856 1.0677537946
H 2.8161436015 2.8366879476 -0.6517388303
H 4.1252971263 3.5444974619 0.3068913625
H 5.8851541283 2.7332375390 -0.6523496393
H 3.3336416633 -2.3500212546 -1.5793018643
H 3.4366267616 -2.4070908259 0.1843408515
H 4.6027530934 -1.4750164316 -0.7357679647
H -5.5917139947 0.2626685269 -0.0248586074
H -5.3065678293 -1.4144898181 -0.5545425424
H -7.0303243525 -1.1758541157 1.0314596192
