24
CONF1
C -0.9621428535 -2.0038295200 1.4731599520
N -1.4237177714 -0.7990241031 0.7983707280
C -0.6137180684 0.2351182695 0.3453595108
C -1.4506335584 1.1880330084 -0.2164304388
C -2.7833038904 0.7367608729 -0.1085426417
C -2.7262538507 -0.4955195004 0.5169021903
Br -4.1306489439 -1.6538976606 0.9442018532
Br -4.3264930980 1.6077471712 -0.7047092224
Br -0.8728127796 2.7792567338 -1.0246284813
C 0.8254731699 0.2158516157 0.4569076043
C 1.7558641623 -0.6039873558 -0.1647682964
C 3.0475484220 -0.2117425586 0.2461819792
C 2.8727123063 0.8523207926 1.1123773365
N 1.5372370622 1.1094293788 1.2478829688
C 0.9556857761 2.1424658902 2.0932883725
Br 4.1732898828 1.8610311094 1.9999235813
Br 4.6793572827 -0.9584963222 -0.2781487220
Br 1.3373565487 -1.9678556049 -1.3829785786
H -1.1098192750 -2.8811263567 0.8368021970
H 0.1028027528 -1.8897890647 1.6792643239
H -1.5072158981 -2.1384266537 2.4110064805
H 1.3478411864 2.0568131638 3.1100117802
H -0.1260765656 2.0037027390 2.1029988342
H 1.1841515073 3.1363825292 1.6978540533
