68
CONF239
C 1.9775352390 -4.3325873005 -0.8458906825
C 1.0196100846 -3.5256920766 -1.7193810626
C 1.3109291360 -2.0048500919 -1.7870502100
C 0.2138569091 -1.3297791528 -2.6275213845
C 1.2976511853 -1.4526879185 -0.3626877388
O 0.0729863237 -1.5420835535 0.1899396883
C -0.0897045433 -1.1429500378 1.5912552267
C 0.0065677722 -2.4119909843 2.4209273570
C -0.1738705912 -2.1216935895 3.9095594903
C -1.3765306492 -1.2515957558 4.1115603984
C -1.9598732675 -0.5198831271 3.1447357574
C -3.1322942949 0.2965120217 3.4243490937
C -3.6008894815 1.2149030527 2.5655041360
C -2.9226000549 1.5540321983 1.2700582575
C -1.4701585457 1.0256512511 1.2649189771
C -1.4501343282 -0.4595064236 1.7151751623
C -0.7431886249 1.2725326988 -0.0595234401
C -0.7051763285 2.7420508137 -0.4810139330
C 0.0599459639 2.9310460738 -1.7813071467
C 1.5394379527 2.6151812705 -1.7002745044
C 2.2002772145 2.9726734046 -3.0133609945
C 2.0482779394 4.4713086677 -3.2409099479
C 0.6757251153 5.0334691930 -2.9476789079
O -0.1757867159 4.3335350583 -2.1756959482
O 0.3299774468 6.1325601621 -3.3345844878
O 3.5790095260 2.5951566621 -2.9377652848
C -3.7704691546 1.0845086543 0.0746970432
C -0.2767535128 -3.4187063622 4.7187996253
O 2.2662103669 -0.9988457091 0.2173723712
C 2.6760313849 -1.7284432179 -2.4211971096
H 3.0062034150 -4.2820282120 -1.2141744368
H 1.9732611868 -3.9756806203 0.1902843997
H 1.6806160529 -5.3855671722 -0.8326207693
H 1.0490554240 -3.9012427983 -2.7500183194
H -0.0066120244 -3.6622480977 -1.3604504572
H 0.3643235959 -0.2462418991 -2.6746341249
H 0.2561055760 -1.7234343222 -3.6483797627
H -0.7810619076 -1.5253056900 -2.2201852291
H 0.7176402894 -0.4511240838 1.8552100934
H 0.9750708917 -2.8914037456 2.2394112331
H -0.7790257029 -3.1052842539 2.0906066484
H 0.7141709177 -1.5756129409 4.2688597300
H -1.7985639249 -1.2146380057 5.1161526679
H -3.6338781014 0.1342004601 4.3765865417
H -4.5058218334 1.7689610628 2.8085371151
H -2.8760788419 2.6510572619 1.2167356364
H -0.9292761565 1.5885056581 2.0419886846
H -2.1531842989 -1.0230394578 1.0830333129
H -1.1937191532 0.6697191900 -0.8570361662
H 0.2871456372 0.9238720883 0.0489703948
H -1.7179397704 3.1292699438 -0.6345562891
H -0.2368345195 3.3513594620 0.3032584165
H -0.4038412799 2.3237402030 -2.5711860584
H 1.6665079177 1.5464816582 -1.5029106474
H 2.0056449615 3.1742140405 -0.8781356790
H 1.7062048211 2.4181160995 -3.8269732915
H 2.7313634991 4.9943636449 -2.5566332556
H 2.3186891385 4.7711890780 -4.2575225676
H 3.9888028752 2.7855703419 -3.7913551213
H -3.3686504716 1.4533979423 -0.8738845864
H -4.7943545222 1.4589950390 0.1731548674
H -3.8199584278 -0.0078733892 0.0267194314
H -0.3707309463 -3.2049188881 5.7882030685
H 0.6132979864 -4.0382192894 4.5689267829
H -1.1545536177 -3.9956508207 4.4070179615
H 2.7002075923 -2.1630554117 -3.4255211329
H 2.8495743239 -0.6510491635 -2.5063622337
H 3.4936001482 -2.1532193919 -1.8355657533
