47
CONF264
C -6.6164392032 -2.2766589407 1.7849245436
O -6.0223718330 -0.9904801752 1.4439998251
P -4.4731788818 -0.9457022584 1.0436601354
S -3.1697560258 -1.6626969436 2.2864270795
O -4.3421528865 -1.6520926918 -0.3891154730
C -5.2253621738 -1.2449427840 -1.4807934750
O -4.4364848533 0.6563220864 0.7761931534
C -3.2329782413 1.3596365605 0.7050067426
C -3.0423409461 2.3896551636 1.6134933922
C -1.8701946121 3.1375136307 1.5528286199
C -0.9119422422 2.8559738174 0.5782509796
C -1.1290093170 1.8259701358 -0.3412780024
C -2.2890117880 1.0658992700 -0.2745833191
S 0.5472923773 3.8861574481 0.4811823147
C 1.8712894735 2.6831672174 0.4453896860
C 3.0158433299 2.9952249726 -0.2926477719
C 4.1003319627 2.1242221931 -0.2998268670
C 4.0179116839 0.9406040367 0.4189559993
C 2.8890020924 0.6149686503 1.1595512232
C 1.8145311196 1.4957707169 1.1798452011
O 5.1332649300 0.0852492792 0.4508773844
P 5.2700086227 -1.1540705274 -0.5825474233
S 6.9146263321 -2.1355276921 -0.2732155447
O 5.0758500234 -0.4075211086 -1.9808536537
C 5.1294614162 -1.1727267374 -3.2192662173
O 3.9021771820 -1.9848260562 -0.4903611377
C 3.7332376891 -3.0305537945 0.5079764068
H -6.1356311348 -2.6829313059 2.6784508381
H -6.5207249245 -2.9747829996 0.9485119946
H -7.6674692122 -2.0685845458 1.9810834716
H -6.2689619546 -1.4149010001 -1.2053447079
H -5.0600016364 -0.1917362569 -1.7222741120
H -4.9497976310 -1.8737344304 -2.3264323138
H -3.7948244351 2.5897002653 2.3684580132
H -1.6999532346 3.9315851137 2.2721797346
H -0.3924819341 1.6139930437 -1.1092524651
H -2.4638707074 0.2657772906 -0.9861028062
H 3.0619978960 3.9145982251 -0.8675478722
H 4.9945691711 2.3535039315 -0.8685766392
H 2.8575856350 -0.3075977303 1.7288097273
H 0.9359823086 1.2541131825 1.7683558519
H 4.9941679233 -0.4452098657 -4.0187045969
H 6.1025992619 -1.6620328427 -3.3124437539
H 4.3242300839 -1.9112669438 -3.2381012352
H 2.7048811333 -3.3739020158 0.3981937199
H 4.4329875018 -3.8459136837 0.3110583471
H 3.8911095690 -2.6292126885 1.5126509827
