38
CONF2
C 1.7536720770 2.3657712495 1.9299325144
C 2.7266501145 1.2555623456 1.5372277320
C 2.5727147255 0.8123033211 0.0963113940
O 1.2701423877 0.2217927727 -0.0538937803
C 1.0301501940 -0.1904338373 -1.3718410299
C -0.3308150440 -0.8377782483 -1.4761002337
N -1.1853606178 -1.0623226873 -0.5674349946
C -1.0340686289 -0.8084587457 0.7925542247
C -0.4052127357 -1.7509035539 1.6150089487
C -0.3287424109 -1.5633197639 2.9855453394
C -0.9067101935 -0.4307229632 3.5491715203
C -1.5696920893 0.5033234366 2.7702322907
C -1.6417763157 0.3088810145 1.3919791357
C -2.3452347759 1.3183182041 0.5359242386
F -1.5322005561 1.8457420797 -0.4200109265
F -3.4089500021 0.7836324908 -0.1222601462
F -2.8207755167 2.3610085160 1.2539185656
Cl -0.8020960754 -0.1788183650 5.2868325903
N -0.6831934648 -1.2216195984 -2.7891218252
C -1.8940485296 -1.7900932459 -3.1703266627
C -1.7932317725 -1.9983373490 -4.5121677321
N -0.5559790114 -1.5809465853 -4.9839397501
C 0.0825632246 -1.1225591959 -3.9359624016
H 0.7170004610 2.0363648394 1.8158749479
H 1.8998443099 2.6633336726 2.9726853356
H 1.8998805268 3.2503340690 1.3001015587
H 3.7606520546 1.5965996277 1.6669436609
H 2.5951355387 0.3834283944 2.1900629077
H 2.6650746067 1.6703049170 -0.5890170749
H 3.3397257598 0.0705796491 -0.1733856508
H 1.0619278637 0.6645918590 -2.0696353368
H 1.7887811205 -0.9183639587 -1.7105356619
H 0.0446803324 -2.6263964726 1.1593148186
H 0.1802479320 -2.2906265661 3.6081385873
H -2.0189999308 1.3773507433 3.2247523148
H -2.6802963220 -1.9767588077 -2.4579698694
H -2.5363300937 -2.4229734656 -5.1724777604
H 1.0848701587 -0.7177894908 -3.9388972840
