65
CONF360
C -3.8100136473 2.6089895335 -3.3676237909
C -3.7714413558 1.0823432576 -3.3475723908
C -3.4037384330 0.5135971853 -1.9746017882
C -3.4525304961 -1.0236970093 -1.9597522264
C -2.0055459772 0.9311299181 -1.5722570735
O -1.0419227937 0.9271543184 -2.3166121689
O -1.9431112022 1.2522813232 -0.2659290246
C -0.6288777731 1.5780532447 0.2886201394
C -0.3791873291 3.0712045925 0.1649790414
C 1.0181224399 3.4214526596 0.6990025337
C 1.2867197288 2.7140179727 1.9941344267
C 0.5578660518 1.6886071695 2.4750617539
C -0.6485424425 1.1333547600 1.7411723613
C -0.7153748265 -0.4000908995 1.9142295282
C -0.8755457026 -0.7027121796 3.4181674244
C 0.2225022694 -0.0310288590 4.1976248391
C 0.8807209586 1.0482169909 3.7411043265
C -0.9729936713 -2.1980661511 3.7325922677
C 0.5092852826 -1.0925705340 1.2714490531
C 0.1270981791 -1.9170182456 0.0408439851
C 1.2953654501 -2.5182055897 -0.7225072758
C 2.2581540474 -1.5087716956 -1.3161780368
C 3.4265205189 -2.2462451830 -1.9468339558
C 4.1562189686 -3.0130472366 -0.8588238615
C 3.2721520536 -3.7603332503 0.1111517212
O 3.7113587368 -4.6187504292 0.8535862619
O 1.9719888505 -3.4382579765 0.2139714766
O 4.3851169130 -1.3608177968 -2.5373820659
C 2.1269060716 3.1231964790 -0.3270334658
H -4.0917324928 2.9825162024 -4.3565834105
H -4.5368841832 2.9902798231 -2.6422960311
H -2.8310144083 3.0332763780 -3.1179280233
H -4.7534747191 0.6802724270 -3.6229478472
H -3.0542476510 0.7098947549 -4.0883667476
H -4.1010207343 0.8975319644 -1.2217126438
H -4.4629412073 -1.3616622865 -2.2075000931
H -2.7575448707 -1.4345219204 -2.6992779654
H -3.1868869535 -1.4205386671 -0.9749408642
H 0.1223316743 1.0217642964 -0.2798145645
H -0.4742407815 3.3807461523 -0.8813378036
H -1.1447603486 3.6000572325 0.7458120675
H 1.0440219405 4.5030040186 0.8930459039
H 2.1468917296 3.0571095376 2.5692734377
H -1.5522357048 1.5586348382 2.2058110831
H -1.6242827570 -0.7535658036 1.4105765316
H -1.8328623935 -0.2515976981 3.7274032112
H 0.4880105369 -0.4550341671 5.1647207310
H 1.6883498891 1.4845597643 4.3261339729
H -1.7708946338 -2.6631634542 3.1442717997
H -0.0371983985 -2.7226953545 3.5156635013
H -1.1981683856 -2.3482408266 4.7934511920
H 1.2535492706 -0.3352656527 1.0013723090
H 1.0056528560 -1.7444199989 1.9957119994
H -0.5509625898 -2.7256221373 0.3411329338
H -0.4269741205 -1.2992229755 -0.6776445639
H 0.9069910874 -3.1582177406 -1.5251553701
H 2.6342938755 -0.8180209368 -0.5528626494
H 1.7128922925 -0.9263949322 -2.0680785511
H 3.0478353283 -2.9468402409 -2.7072633888
H 4.7206857906 -2.2934155908 -0.2485206877
H 4.8794650743 -3.7238643623 -1.2666924547
H 3.9592324352 -0.9279810249 -3.2887570338
H 2.1343226718 2.0623297483 -0.5999834309
H 3.1109423990 3.3693534317 0.0844615483
H 1.9755867172 3.7149678266 -1.2357622985
