51
CONF19
C -0.3105601138 0.7709305370 -3.7612409617
C -0.6073027700 1.4856756398 -2.4563752823
C -1.4847956654 2.7083370327 -2.6303389008
O 0.6443419235 1.9891105867 -1.8765794474
C 1.3525533464 1.1725499032 -1.0962215193
N 2.3692467240 1.7584151288 -0.4606880908
C 3.0310818967 0.9613811287 0.3818701142
C 2.7052166412 -0.3528350053 0.6448645608
C 1.6199002049 -0.8410879116 -0.1006473084
N 0.9878175993 -0.1131759644 -1.0040988875
O 1.2156754345 -2.0904067749 0.1548135868
C 0.0752415355 -2.6107909422 -0.5742461590
C -1.2060065314 -1.8141534834 -0.5113085640
C -2.0478780065 -1.9167151998 -1.6204828297
C -3.2617243199 -1.2439864444 -1.6763874698
C -3.6447206440 -0.4326888143 -0.6136906787
C -2.8151341809 -0.3233601659 0.4940500792
C -1.6013854055 -1.0146121869 0.5732886517
C -0.7667850915 -0.8323478137 1.7830210428
C -0.2925817858 0.3810660528 2.1445038392
O -0.5015563324 1.4719397447 1.3919767049
C 0.0542751451 2.6999850604 1.9001320926
C -0.4250008291 -2.0255239413 2.5676961041
O -0.8227931966 -3.1451284183 2.3127172239
O 0.4000982669 -1.7593398034 3.6177597411
C 0.7554617174 -2.9120671059 4.4039310550
C 4.1900284106 1.6342040642 1.0929181552
F 5.0787118478 2.1410748329 0.2204273729
F 4.8509453592 0.7720178780 1.8975546700
F 3.7554543967 2.6541611006 1.8720389486
H 0.3335187490 -0.0950870928 -3.5923000657
H 0.1793936863 1.4500970042 -4.4661822423
H -1.2466351187 0.4208196769 -4.2073914509
H -1.0563527250 0.7946703051 -1.7368942892
H -1.0191955264 3.4292696646 -3.3091777894
H -2.4494308333 2.4058614258 -3.0481895448
H -1.6632787593 3.1944680814 -1.6676831931
H 3.2254390852 -0.9691796254 1.3635442088
H 0.3676105357 -2.7340910634 -1.6227590944
H -0.0733342401 -3.5930703151 -0.1181585653
H -1.7348239686 -2.5246102802 -2.4654304956
H -3.8972699171 -1.3447866915 -2.5503356118
H -4.5850295032 0.1080049519 -0.6439756248
H -3.1072989678 0.3020667699 1.3312599221
H 0.3098324483 0.5110110558 3.0411799895
H 1.0932535168 2.5560998263 2.2120134925
H 0.0253344355 3.4095904134 1.0732671459
H -0.5495941998 3.0667705434 2.7375619911
H 1.4059453894 -2.5356417963 5.1937625206
H -0.1374389347 -3.3782300540 4.8290999670
H 1.2815303931 -3.6466614144 3.7882783808
