47
CONF37
C -4.9225050737 -0.7137981977 -0.6774594995
Si -3.6082769670 -0.1325923950 0.5258329977
C -2.9278511780 -1.5924166455 1.4893437965
C -4.3073851956 1.1525802167 1.6911418478
O -2.3904405484 0.5945491487 -0.3294167916
Si -1.0047655213 0.1693983485 -1.1042000359
C -1.3553192894 -1.1336261564 -2.3915646313
C -0.2838520620 1.7249233121 -1.8374615684
O 0.0429324890 -0.4983189188 -0.0225325838
Si 0.9795129286 -0.0075974898 1.2411361306
C 0.0716524089 1.2427761307 2.2849525476
C 1.4374263977 -1.5413337275 2.1984797051
O 2.3294518077 0.7300459907 0.6635109402
Si 3.6270769777 0.3655680863 -0.2995507540
C 4.9774490373 -0.3765040192 0.7679723598
C 4.2050898661 1.9688729518 -1.0702839910
C 3.1121471379 -0.8573643823 -1.6258770652
H -4.5262710206 -1.4709514502 -1.3629011482
H -5.7766738828 -1.1543888399 -0.1514649188
H -5.2947426070 0.1211857315 -1.2807776758
H -2.4518030346 -2.3246671298 0.8281272925
H -2.1750086284 -1.2703078526 2.2165281062
H -3.7259370299 -2.1048924719 2.0382352658
H -4.6859408469 2.0171582420 1.1356895412
H -3.5391446388 1.5117471948 2.3842173680
H -5.1334880057 0.7455687116 2.2842746603
H -1.7376436586 -2.0471229049 -1.9231481954
H -0.4455616544 -1.4006440669 -2.9395841517
H -2.0999927871 -0.7865008006 -3.1153211075
H 0.6374188424 1.5149470093 -2.3905761699
H -0.0427870911 2.4512146781 -1.0539235195
H -0.9927287563 2.1970381757 -2.5255771595
H -0.2599760193 2.0920295144 1.6781871965
H 0.7187977797 1.6290251840 3.0792812505
H -0.8150625691 0.8036498612 2.7534857758
H 0.5482081411 -2.0222866265 2.6195596847
H 1.9286803366 -2.2723187237 1.5468747979
H 2.1211005124 -1.3082679580 3.0214719085
H 5.2616823937 0.3105473882 1.5722374920
H 4.6464612043 -1.3131195275 1.2298486592
H 5.8755418153 -0.5940347995 0.1793780489
H 5.0803633244 1.8127127565 -1.7101347127
H 3.4145584869 2.4151988286 -1.6831402169
H 4.4783329283 2.6957021317 -0.2979964418
H 3.9641851838 -1.1324809753 -2.2576587933
H 2.7083486910 -1.7763570222 -1.1873424852
H 2.3367395868 -0.4345471198 -2.2732631665
