47
CONF19
C -4.8219070338 -1.6411216216 -0.2972142957
C -3.6552105272 -0.7529826480 0.0755480475
C -2.2765296975 -1.3421505696 0.2241796620
C -2.6250228656 -0.5320278275 -1.0353247043
C -1.9807037977 0.7567787785 -1.3282587684
O -1.9771975822 1.2946788714 -2.4157699776
O -1.3618531819 1.3007052709 -0.2379147488
C -0.6885469211 2.5549403238 -0.4804864357
C -0.5517358666 3.1775233857 0.8384236844
N -0.4123188832 3.6899853719 1.8637585698
C 0.6687869123 2.3616769229 -1.1241272690
C 1.4885604615 1.3201426894 -0.6908054944
C 2.7500328654 1.1597128188 -1.2527534915
C 3.1586148884 2.0541195539 -2.2469569672
C 2.3483176823 3.0805737946 -2.6889477029
C 1.0882583995 3.2389991993 -2.1191734476
F 4.3815399212 1.8888045619 -2.7917404925
O 3.6158758053 0.1453809560 -0.9514111622
C 3.5882732289 -0.4416243754 0.3097852955
C 3.4810383015 0.3143112094 1.4735927115
C 3.5326841813 -0.3383671703 2.7021271166
C 3.7055492372 -1.7201420575 2.7653978705
C 3.8298966840 -2.4544833135 1.5885155510
C 3.7660946442 -1.8191879715 0.3518214035
C -1.9983279157 -2.7726380888 0.0839029424
C -0.9623741920 -3.4032418652 0.6389321675
Cl 0.2555219057 -2.6218242001 1.6090132908
Cl -0.6997567279 -5.1169336344 0.4375052826
C -4.0381105809 0.3792342832 1.0020700571
H -5.2014411697 -2.1509715321 0.5950733126
H -4.5589698091 -2.3941449908 -1.0426673604
H -5.6307531495 -1.0291815384 -0.7091706117
H -1.6344332039 -0.8096167238 0.9169957353
H -2.8159352326 -1.0975906233 -1.9413910986
H -1.3118587044 3.2018099821 -1.1086317538
H 1.1483819119 0.6316796959 0.0756850230
H 2.7068321587 3.7426566275 -3.4694149319
H 0.4381818879 4.0397911549 -2.4555545896
H 3.3620319577 1.3913623872 1.4220291842
H 3.4475413490 0.2428353415 3.6148704922
H 3.7467826624 -2.2201480038 3.7273768178
H 3.9655457078 -3.5305953297 1.6280971475
H 3.8521874255 -2.3751210052 -0.5757264412
H -2.6683394523 -3.3797241020 -0.5168307812
H -3.1776856277 0.9637715312 1.3300749615
H -4.5280166421 -0.0365096760 1.8888304394
H -4.7495011079 1.0488542623 0.5062958464
