42
CONF28
C 3.2121080287 0.9237167630 0.0810055469
C 1.7858836182 0.4623935420 0.3516856659
C 1.7219913413 -0.4151615045 1.6245691862
C 0.4337374041 -1.1743283028 1.7510023687
C 0.1678564777 -2.3041277587 0.9606568746
C -1.0155188650 -3.0269353984 1.0117865104
C -1.9924129478 -2.6023169495 1.9004578278
C -1.8042545835 -1.5033507779 2.7235864966
C -0.5975965287 -0.8168969295 2.6311280169
Cl -0.4008661025 0.5574377610 3.7047714187
Cl -3.5085881067 -3.4745451303 1.9759566459
Cl 1.3788445161 -2.8628359346 -0.1834595583
N 0.8692287458 1.6067406262 0.4402516300
C -0.4550904734 1.6274834430 0.0940289860
O -1.2522094559 2.4481402557 0.5518913268
C -0.8949957038 0.6261590338 -0.9110236881
C -1.9878246762 -0.2053782279 -0.7244457307
N -2.1464948988 -0.9155924259 -1.8605632272
N -1.2552780203 -0.5812876639 -2.8031313183
C -0.4819728231 0.3507052204 -2.2350063860
C 0.5842638888 0.9696731163 -3.0653202453
F 1.8182784347 0.3776755831 -2.8282823211
F 0.7338503213 2.2983108495 -2.7343410410
C -3.1403706461 -1.9493123748 -2.1190177973
O 1.2412449587 2.5284276105 1.4255219089
C 1.5747119521 3.7986453784 0.8222628935
H 3.6144604234 1.4777212233 0.9338421087
H 3.8413921755 0.0455820219 -0.0872861539
H 3.2538180940 1.5552271870 -0.8095489393
H 1.4366029644 -0.1261045558 -0.4968742734
H 2.5504503446 -1.1274899738 1.5703675637
H 1.8904138510 0.2136995678 2.5001737988
H -1.1710610890 -3.8875572195 0.3735420302
H -2.5717380323 -1.1840384524 3.4170960716
H -2.6340039398 -0.3381082242 0.1312204511
H 0.3836473718 0.8905677755 -4.1379549080
H -2.6383548698 -2.8955153927 -2.3353062455
H -3.7637884971 -1.6595040023 -2.9683248234
H -3.7583463965 -2.0580089129 -1.2271727535
H 0.7058499126 4.2189940964 0.3065484210
H 2.4160290024 3.6922733457 0.1307690239
H 1.8561026223 4.4388212884 1.6609889330
