49
CONF73
C -1.0472113103 -1.1804348865 4.9516154232
C 0.1169499673 -0.6952495483 4.3601669141
C 0.1850499954 -0.5171345983 2.9819213438
C -0.9164989055 -0.8567126963 2.1982310792
C -2.0882743767 -1.3459140635 2.7765762601
C -2.1473386422 -1.4988247131 4.1575086589
N -0.8210718552 -0.6951617389 0.7883618097
C 0.0831814274 -1.3597361539 -0.0169910225
O 1.1288615116 -1.8595356590 0.3618355802
C -0.4963973961 -1.3849926527 -1.4162091813
C -1.8177802920 -0.6581700139 -1.2851405444
O -2.5760007259 -0.3259129547 -2.1785710080
N -1.9931698732 -0.3585367154 0.0558023023
C -2.7784683002 0.7436086832 0.5071754049
C -4.1583026720 0.6905309122 0.3267913939
C -4.9368122653 1.7705357980 0.7319590159
C -4.3445335262 2.8776835174 1.3350872486
C -2.9637905924 2.9105823890 1.5228247924
C -2.1703852977 1.8479565771 1.1037927960
C 0.4298588858 -0.7682213960 -2.4740530570
C 0.7341352694 0.6915001545 -2.1644858262
S 1.9628512211 1.4291422834 -3.3409255531
O 2.2117185447 2.8426714395 -2.8043061049
C 3.3808623988 0.4068514751 -2.8397168344
C 4.0355319776 0.6816494767 -1.6429747352
C 5.1216730339 -0.1066382018 -1.2768274573
C 5.5421197928 -1.1488174886 -2.1040854273
C 4.8825118892 -1.4044307910 -3.3036906880
C 3.7961698500 -0.6180629936 -3.6837425892
H -1.0998905129 -1.3047332022 6.0282435312
H 0.9740276538 -0.4365800973 4.9734969271
H 1.0758582727 -0.1143290868 2.5144324408
H -2.9396959720 -1.6043699026 2.1564181508
H -3.0574818988 -1.8766422642 4.6121266095
H -0.6842541584 -2.4353926272 -1.6750914252
H -4.6100012494 -0.1876631324 -0.1204515760
H -6.0119987108 1.7365805409 0.5889627284
H -4.9570251645 3.7114737593 1.6622811736
H -2.4970098169 3.7713021693 1.9908208171
H -1.0940844989 1.8756697295 1.2367486766
H 1.3501114981 -1.3605222716 -2.4830020727
H -0.0455457821 -0.8648017667 -3.4545486735
H -0.1521724653 1.3272824503 -2.2715992130
H 1.1634512275 0.8322883925 -1.1649290830
H 3.7019084471 1.5005814869 -1.0126518907
H 5.6415340040 0.0924034508 -0.3450511495
H 6.3909796590 -1.7594699913 -1.8134899172
H 5.2163666740 -2.2097756723 -3.9499424220
H 3.2794820547 -0.8035262994 -4.6210425086
