42
CONF13
C -2.7975730403 -1.8038872595 1.3819141474
C -2.3537987646 -0.7940651866 0.3806164054
C -3.1031144680 -0.2045950900 -0.5922333234
C -2.2738959668 0.7513308830 -1.3236469005
C -0.9573776983 0.6955000171 -0.8061117849
C -0.9666066358 -0.3068673338 0.2771611268
C 0.0201903783 -0.7487222627 1.0946265798
C 1.4567132943 -0.5120196835 1.0072617713
C 2.1374069047 -0.5428911554 -0.2196111357
C 3.5118252130 -0.3583603721 -0.2789414955
C 4.2178498793 -0.1532331259 0.8992509537
C 3.5738715447 -0.1199878852 2.1323356346
C 2.2024017889 -0.3229772072 2.1832211907
S 6.0164380637 0.1406835473 0.7810119265
O 6.3531147993 0.2128180422 -0.6944941277
C 6.5108002771 -1.5527513526 1.3359806072
C -0.0024401719 1.5917633652 -1.2672595616
C -0.3379703394 2.5002558442 -2.2741263775
C -1.6271640875 2.4973649805 -2.7820601308
C -2.6264913713 1.6478521210 -2.3228915283
F -1.9355247032 3.3791454795 -3.7592049272
C -4.5507472765 -0.4255484481 -0.9060903362
C -5.3914003535 0.7031908703 -0.3428001380
O -5.8370682926 1.6312054669 -0.9712059140
O -5.5675303838 0.5592852613 0.9969405735
H -3.8593854270 -2.0324915383 1.2765139123
H -2.2337334896 -2.7391617767 1.2874368952
H -2.6484629317 -1.4342598908 2.4035358470
H -0.2852845616 -1.3780913099 1.9295662821
H 1.5771484131 -0.7351843049 -1.1285917260
H 4.0511871191 -0.3739438992 -1.2216637777
H 4.1334757635 0.0611381130 3.0462404884
H 1.6898564658 -0.3101011540 3.1407190682
H 7.6023165085 -1.5865621254 1.3047659384
H 6.1499703743 -1.7260797620 2.3534077615
H 6.0800987586 -2.2734363819 0.6364950312
H 1.0004688402 1.6081439455 -0.8582676617
H 0.3864216087 3.2079818881 -2.6596397494
H -3.6349012820 1.7265930650 -2.7139861502
H -4.8983081665 -1.3722780157 -0.4852252726
H -4.7086953098 -0.4381945668 -1.9877048875
H -6.0740815805 1.3314386852 1.2948064472
