45
CONF26
C 6.0479609413 -0.3562781192 1.9961756643
C 5.9110562272 0.3290458445 0.6377402084
C 4.5642986628 0.0510683667 -0.0299016154
C 4.4173269005 0.7445500868 -1.3850791860
C 3.1316939254 0.3866188745 -2.1365399718
C 1.8525752461 0.8254197384 -1.4225365232
C 0.5978111443 0.5323562479 -2.2415133096
C -0.7118792838 0.8979753252 -1.5147920554
C -0.9778148623 0.0601610806 -0.2879634928
C -1.4441139131 -1.2496399817 -0.4698362289
N -1.6433406825 -1.9803220764 0.6635183423
C -1.4050502367 -1.4734562946 1.9330460255
N -1.6973020709 -2.4335804531 2.8288740081
C -2.0980131616 -3.4652292215 2.0530827700
N -2.0919869753 -3.2655869066 0.7323471007
N -0.9673049456 -0.2336097816 2.1327702016
C -0.7611367490 0.5117165580 1.0335793738
C -0.3350772563 1.9291213250 1.3139344940
C -1.5502229736 2.8655872320 1.3933501189
N -1.6901534029 -1.8573804092 -1.6433398250
H 5.9501537685 -1.4430590675 1.8957105413
H 5.2680912643 -0.0147830906 2.6859901137
H 7.0190820858 -0.1470735592 2.4560155736
H 6.7188114780 -0.0040303292 -0.0276022808
H 6.0364809245 1.4136743554 0.7565128465
H 3.7612154345 0.3712544380 0.6469904259
H 4.4422375399 -1.0338143169 -0.1631971796
H 5.2798890596 0.4792310752 -2.0112082651
H 4.4622381518 1.8335397074 -1.2416249815
H 3.0979638154 -0.6998095992 -2.3007383096
H 3.1569943720 0.8502919086 -3.1319485900
H 1.9089105591 1.9028438863 -1.2114704448
H 1.7768184216 0.3185061054 -0.4521353135
H 0.6366952095 1.0930349928 -3.1841612119
H 0.5898391270 -0.5316678325 -2.5120457028
H -0.6847636883 1.9557782233 -1.2437020378
H -1.5538628913 0.8002714254 -2.2131775423
H -2.4132563097 -4.4188957496 2.4601893457
H 0.3611637558 2.2860555876 0.5520335142
H -1.2303626432 3.8868766935 1.6198610899
H -2.2356682430 2.5362082519 2.1801665685
H -1.7049897781 -1.3180133213 -2.4920911184
H -2.1652286818 -2.7468517081 -1.6416932925
H 0.1928935750 1.9347901105 2.2714129806
H -2.1009545496 2.8802850551 0.4473913258
