22
CONF5
C 2.4702628388 0.3913208543 -0.4643176286
C 0.9925446091 0.7091084994 -0.7054244419
C 0.0744696021 0.0663367704 0.3437376865
C -1.4112759030 0.2868814102 0.0339824584
C -2.3234960622 -0.0848854409 1.2023502094
O -2.0601689097 0.7137788549 2.3549353359
O -1.8123404273 -0.5579475644 -1.0487709906
O 0.3307085287 -1.3418509238 0.4872683157
O 0.6396148131 0.3078601561 -2.0398146645
O 2.7725508954 -0.9457863563 -0.8634518918
H 2.7266580369 0.5690915525 0.5910230134
H 3.0927972444 1.0428877641 -1.0856070805
H 0.8459758158 1.7971561556 -0.6470922326
H 0.3099623381 0.5371923574 1.3083239343
H -1.5658238895 1.3503424588 -0.2088399061
H -3.3588554667 0.1028779204 0.9013953480
H -2.2244005001 -1.1571802077 1.4171653027
H -1.4148897472 0.2534559290 2.8998530564
H -1.2342010636 -0.3222676154 -1.7940071398
H -0.2936962359 -1.7742202563 -0.1186012594
H 1.2356594196 -0.4299779423 -2.2491589673
H 2.2079448727 -1.5141741589 -0.3149484682
