30
CONF26
O 5.7038553206 -0.8093550375 -1.1234326219
S 4.8987282724 -0.5620864797 0.2591140265
O 4.9413652582 -1.8283686671 0.9704744596
O 5.2789135387 0.7094506537 0.8633503160
C 3.1334652857 -0.3525263172 -0.4645768384
F 3.2220300828 0.4672914990 -1.5231713125
F 2.7176631390 -1.5648050836 -0.8638443494
C 2.1531877357 0.2422713592 0.5969413139
F 2.4064077640 -0.3504357667 1.7854312115
F 2.3920597429 1.5658865556 0.7007821464
C 0.6433428350 0.0089685395 0.2290132483
F 0.3337409785 -1.2727840522 0.5179792981
F 0.4884975142 0.2153398215 -1.1005993886
C -0.3347523643 0.9622454963 0.9924387536
F 0.0489034221 1.0051756392 2.2921507839
F -0.2387660538 2.2010339691 0.4697806213
C -1.8577293779 0.5470481119 1.0163043895
F -2.4998864285 1.5607258442 1.6473597853
F -1.9787745175 -0.5724379167 1.7576949305
C -2.5479651803 0.3205070938 -0.3683811043
F -2.1778328039 1.3064000304 -1.2150567118
F -2.1259425964 -0.8667112218 -0.8643873809
C -4.1147554859 0.3103225852 -0.2879877828
F -4.5111233427 -0.3718878380 0.8100652477
F -4.5524169946 1.5837298687 -0.1996896611
C -4.8050630741 -0.3467304055 -1.5293527163
F -4.2994943708 0.1557081714 -2.6644576252
F -4.6375184475 -1.6729745549 -1.5224477560
F -6.1166304581 -0.0805209232 -1.4835389951
H 5.9518046377 0.0420280706 -1.5355866286
