55
CONF11
C -2.8546438374 1.1797632709 -1.1527136736
C -2.2346275550 0.4334183358 0.0520592315
C -2.4707429659 1.2838356882 1.3173510173
C -3.9003258800 1.1920695805 1.8455290221
C -4.2886357713 -0.2477629330 2.1098080553
O -5.0494096117 -0.5689222980 3.0109128803
C -3.7603066720 -1.2317602268 1.1580346053
C -2.8910179929 -0.9283511950 0.1736954661
C -2.5709250915 -1.9238362874 -0.9064167140
C -1.0686788389 -2.0680619875 -1.1793519892
C -0.4032482115 -0.6983331079 -1.3741042232
C -0.6977691401 0.2489792541 -0.1987820780
C 0.0994022708 -0.1499883310 1.0634779151
C 1.2220582583 -1.1552861631 0.8269458832
C 2.0480820171 -0.9745980337 -0.4531006495
C 1.1064746302 -0.7804448099 -1.6989647080
C 1.6237228513 0.4865039671 -2.4203359443
C 2.2769810615 1.3496421874 -1.3405981460
C 2.9681557671 0.3078317826 -0.4574010702
C 3.4837947101 0.7833521662 0.8772492611
O 3.8470918903 0.0148100882 1.7560933200
C 3.6548353010 2.2724403636 1.1037493434
O 4.1795161694 2.5469642755 2.3773135286
C 2.9258768709 -2.2203692153 -0.6247119521
O 0.6270110263 1.0854350263 1.6014861835
H -3.9149694593 1.3804142100 -0.9763510379
H -2.7828956009 0.6169243947 -2.0847236367
H -2.3440071662 2.1381447608 -1.2951464632
H -2.1995905850 2.3237930719 1.1027634581
H -1.8015722845 0.9588518451 2.1173277909
H -4.0280553574 1.7645866113 2.7679398583
H -4.6225152445 1.5903802267 1.1197338372
H -4.1806758179 -2.2320684214 1.2373390969
H -3.0153921977 -2.8929147256 -0.6597331264
H -3.0631837911 -1.5831440624 -1.8293224797
H -0.9173793043 -2.6755389597 -2.0797107093
H -0.6161542313 -2.6224933139 -0.3533685463
H -0.8680278794 -0.2652014783 -2.2693575372
H -0.3351527918 1.2457553422 -0.4739434855
H -0.5861282010 -0.6017640704 1.7986271601
H 1.8853869120 -1.1560929155 1.6974854944
H 0.7891544505 -2.1591382320 0.8054830982
H 1.2294748804 -1.6439371557 -2.3645760067
H 0.8311068104 1.0105626693 -2.9649333578
H 2.3845559957 0.2011730883 -3.1567538422
H 2.9762491472 2.0811387811 -1.7582670034
H 1.5270221224 1.8988868057 -0.7655596935
H 3.8918392236 0.0099986312 -0.9821889063
H 2.6778256083 2.7599588569 0.9757198822
H 4.3144573766 2.6602461091 0.3064245779
H 4.3924374683 1.6771827588 2.7575664213
H 3.6273787994 -2.3128108839 0.2107536029
H 3.5022185457 -2.1661273006 -1.5554157660
H 2.3104487954 -3.1260570105 -0.6625667457
H 1.0634716314 0.8819591807 2.4388243885
