49
CONF3
C -1.2998155617 2.7217002411 3.1986683069
C -0.3883239352 1.9402357379 3.9049086243
C 0.0503264924 0.7276006263 3.3822484129
C -0.4101498839 0.3182938551 2.1326639794
C -1.3183336227 1.0930364087 1.4117913560
C -1.7649874489 2.2919150711 1.9571147035
N 0.0766688973 -0.9162338690 1.6076199300
C 1.3975611396 -1.0779084877 1.2084882108
O 2.3350249933 -0.4125900677 1.6103071490
C 1.4172238882 -2.1998231263 0.1986056697
C -0.0415491699 -2.3800230675 -0.1731690157
O -0.5022176564 -3.1192086163 -1.0253795318
N -0.7739680202 -1.6626338636 0.7527700630
C -2.0996076747 -1.9444689860 1.1588188321
C -2.4106494669 -2.0769327773 2.5143263774
C -3.7204823216 -2.3564345372 2.8870699323
C -4.7129138576 -2.5151019119 1.9217979775
C -4.3903848702 -2.3804622907 0.5734205656
C -3.0890771777 -2.0807307182 0.1834493318
C 2.4506846069 -2.1124968278 -0.9267562722
C 2.6289142244 -0.7605729456 -1.6064925116
S 1.1012896484 -0.2004207151 -2.4815599851
O 0.1252582698 0.1761088360 -1.3589304869
C 1.7987102312 1.3562834268 -3.1143184242
C 2.4906394274 1.3477337296 -4.3218443791
C 3.0091965131 2.5460226266 -4.8050170369
C 2.8174272794 3.7289456884 -4.0921717034
C 2.1081544938 3.7189515275 -2.8925728611
C 1.5897071940 2.5256214772 -2.3948438380
H -1.6505357050 3.6599751774 3.6160444365
H -0.0266771174 2.2650827349 4.8751851859
H 0.7403497187 0.0990792122 3.9336474144
H -1.6601096983 0.7649941824 0.4373611398
H -2.4741378545 2.8972096183 1.4014584411
H 1.6371609471 -3.1166920346 0.7717211666
H -1.6377392496 -1.9640511465 3.2664942551
H -3.9624622741 -2.4572507905 3.9402893189
H -5.7327241404 -2.7354707770 2.2195990749
H -5.1591202646 -2.4911819978 -0.1847164192
H -2.8376881241 -1.9471557910 -0.8612194009
H 3.4259109936 -2.3818693005 -0.5090733901
H 2.2000941977 -2.8816319427 -1.6656328025
H 2.8731411465 0.0373363269 -0.8972381313
H 3.4132694249 -0.8245387597 -2.3681034860
H 2.6245478267 0.4235953983 -4.8773704134
H 3.5539962209 2.5565337763 -5.7436120133
H 3.2164927002 4.6619624258 -4.4769768297
H 1.9550911238 4.6419769607 -2.3423706645
H 1.0268124962 2.4956913887 -1.4668391619
