45
CONF82
C -5.6162168662 1.2956105463 -0.2392774953
O -4.4526547221 0.6612472117 -0.8273319481
C -4.3990081345 -0.6759831244 -0.6757163970
O -5.2799164452 -1.3654247490 -0.1982787864
N -3.1777794077 -1.1559278986 -1.1155681851
C -2.2148500693 -0.4111103552 -1.8607907023
C -1.9832461836 -0.7510367758 -3.1955559169
C -1.0250645972 -0.0654000547 -3.9292671166
C -0.3056809460 0.9699701766 -3.3352056162
C -0.5396107864 1.3035247716 -2.0066803366
C -1.4814394164 0.6110122172 -1.2414669077
C -1.7010357245 0.9759955893 0.2050320549
O -0.5387560374 1.5822986906 0.7995293070
C 0.5151840774 0.7618423713 1.0055091618
N 1.6732250200 1.3267014270 1.3320227736
N 2.5224040703 0.2742410881 1.5004197223
C 1.9044271073 -0.9193360775 1.2808803868
C 0.5947027958 -0.6490585956 0.9528392850
C 3.8629707016 0.4990666345 1.8774941779
C 4.8373471379 -0.4628543832 1.6013646498
C 6.1535925466 -0.2491819451 1.9907552093
C 6.4865135619 0.9357863521 2.6358494743
C 5.5304481223 1.9081587105 2.9025277263
C 4.2120544864 1.6859432340 2.5253769168
Cl 8.1560758170 1.2134206069 3.1180250934
O -3.2034801093 -2.5285851831 -1.3941403384
C -2.2751323375 -3.2194997494 -0.5330551959
H -6.5260056852 0.9373675135 -0.7256235310
H -5.6560245558 1.0893321127 0.8327742890
H -5.4784105089 2.3607106874 -0.4204526201
H -2.5545409500 -1.5556993528 -3.6442518087
H -0.8481662999 -0.3332591727 -4.9659048907
H 0.4400941542 1.5146088795 -3.9050922452
H 0.0312316645 2.0992936067 -1.5396504912
H -2.0156273284 0.1017331620 0.7887781463
H -2.4788721165 1.7380326225 0.2968650479
H 2.4173775824 -1.8619192013 1.3970760368
H -0.1773755684 -1.3655398429 0.7264836054
H 4.5867496030 -1.3725776849 1.0681271929
H 6.9114021866 -0.9936208092 1.7753269390
H 5.8037506970 2.8274240314 3.4078777666
H 3.4547247029 2.4292377668 2.7402350143
H -2.5256955544 -3.0482943469 0.5190271983
H -2.3927437477 -4.2752973431 -0.7848974413
H -1.2469418310 -2.9020925662 -0.7419896071
