38
CONF6
C 3.3493282799 -0.7066689775 -1.2602334797
C 2.5088522866 -1.5653301748 -0.3393840243
C 2.1534102356 -2.9187537644 -0.9239755528
O 1.2648937245 -0.8041341910 -0.1248180427
C 0.5733119306 -1.0652047752 0.9797777713
O 0.8906824636 -1.8558842681 1.8440754936
C -0.7188096538 -0.2212883847 1.0806437080
C -1.5357131044 -0.4285843247 -0.1926103836
C -1.2574024407 0.3026230378 -1.3489564794
C -1.9717901824 0.0823650558 -2.5193807923
C -2.9719575095 -0.8831643319 -2.5243864412
C -3.2678462486 -1.6236132249 -1.3892330986
C -2.5418860856 -1.3915562852 -0.2239685699
Br -3.9642928105 -1.1898420712 -4.1307010117
C -0.3798261633 1.2506487979 1.3253670950
C 0.8864900559 1.6783672212 1.7166060849
C 1.1297745310 3.0161372840 2.0183381552
C 0.0851095502 3.9238424768 1.9285718209
C -1.1923704813 3.5231397045 1.5534524713
C -1.4146981369 2.1858575059 1.2550297809
Br 0.4063147461 5.7651943349 2.3309541526
O -1.4560500287 -0.7041062484 2.1931623824
H 3.5443431255 0.2720294363 -0.8140199557
H 4.3072073004 -1.1997216766 -1.4482549806
H 2.8410316549 -0.5605555853 -2.2179434408
H 2.9876816072 -1.6840030662 0.6383180740
H 1.6168435395 -2.7929710967 -1.8693083926
H 1.5320769989 -3.4918690904 -0.2321586000
H 3.0681153138 -3.4874876992 -1.1162025725
H -0.4771290528 1.0560146584 -1.3361024902
H -1.7575050188 0.6555971949 -3.4134900678
H -4.0541534377 -2.3688848475 -1.4083246769
H -2.7667916722 -1.9531451274 0.6747117752
H 1.7081121567 0.9733408819 1.7980390274
H 2.1179673403 3.3428075722 2.3192615084
H -1.9993472904 4.2438967354 1.4961085946
H -2.4091867825 1.8622276461 0.9647237941
H -0.8347912490 -1.2373204544 2.7163114959
