54
CONF41
C -6.3510038688 1.5963265494 0.6786579100
C -4.8538671165 1.6958257975 0.4152036242
C -4.4355304801 1.2553144697 -1.0371354741
N -3.0654613180 0.7887336442 -0.9181425712
C -2.5011517815 0.5906721297 0.4310156902
S -3.9516684300 0.4942653157 1.5407518081
C -1.8184556525 -0.7091429657 -0.0982604966
C -2.4543189018 -0.3349357012 -1.4554137755
O -2.4508355033 -0.7992744935 -2.5718206182
N -0.3986525338 -0.8404959603 -0.0214494802
C 0.1986040726 -1.8152842313 0.7019254701
O -0.4129808155 -2.6748261836 1.3310100057
C 1.7326152141 -1.7967698732 0.7788232108
C 2.1536670154 -1.1227741633 2.0843111915
C 1.9536332151 0.2460276577 2.2797593978
C 2.3287638366 0.8404145575 3.4808530546
C 2.9042737542 0.0744302788 4.4928340913
C 3.1047033787 -1.2898484277 4.2988474337
C 2.7322816846 -1.8880101897 3.0974679266
C 2.4805276293 -1.1333291119 -0.3574753591
O 2.1346353688 -0.1519354836 -0.9793025080
O 3.6594678068 -1.7692426953 -0.5559149555
C 4.5442452292 -1.1963115591 -1.4937166566
C 4.5359729882 -1.6747854236 -2.7938356593
C 5.4555537030 -1.1486153734 -3.6987018672
C 6.3554734507 -0.1647828965 -3.2936156206
C 6.3403807373 0.2982374185 -1.9790952541
C 5.4272589132 -0.2187625958 -1.0631542758
C -5.3418153431 0.1476319172 -1.5654899687
O -5.2206865425 -1.0286674521 -1.3088223870
O -6.3195707773 0.6600438721 -2.3293435473
C -4.3601644853 3.1230136711 0.6585356323
H -6.5649977387 1.9329930777 1.6965752400
H -6.7250170243 0.5750817719 0.5649635445
H -6.8889952261 2.2511093960 -0.0141516765
H -4.5217926676 2.1276943428 -1.6934035754
H -1.8010364000 1.3743422316 0.7354432139
H -2.2979233368 -1.6068283452 0.3032908147
H 0.1937754693 -0.1787675332 -0.5122671292
H 2.0392362176 -2.8433812274 0.8244748982
H 1.5078679618 0.8517053660 1.4963162610
H 2.1707344413 1.9045020738 3.6253202731
H 3.1958536300 0.5402014553 5.4288365573
H 3.5530408205 -1.8925745325 5.0824316651
H 2.8900711690 -2.9514433937 2.9454165580
H 3.8255825586 -2.4411261906 -3.0854963165
H 5.4664443365 -1.5109666191 -4.7215326484
H 7.0701952946 0.2404455944 -4.0023320403
H 7.0415354823 1.0631606342 -1.6614656692
H 5.3970020644 0.1250724839 -0.0342379496
H -6.9131834640 -0.0629133950 -2.5995471468
H -4.5570609332 3.4129446603 1.6934634435
H -4.8978016305 3.8089842835 -0.0057900165
H -3.2894261496 3.2266203880 0.4626702103
