47
CONF127
C -5.1205141792 1.2303075222 0.5851028894
C -4.0709096522 0.6992925810 1.5378870170
C -3.6117448212 1.6210214651 2.6187191392
C -2.6962588576 1.3653638034 1.3994044668
C -1.4399915109 0.6407075594 1.6000233917
O -1.2020994250 -0.2442083330 2.3961571501
O -0.4796947723 1.1278238937 0.7445686161
C 0.8238126182 0.5038516615 0.8648141576
C 1.4327407986 0.8907519733 2.1441570974
N 1.9297871249 1.2087117667 3.1371252898
C 1.6606802240 0.9599960047 -0.3054800859
C 2.0484175094 2.2957534850 -0.4156141187
C 2.7788471837 2.7017070602 -1.5271610149
C 3.1366206099 1.7870289914 -2.5124789051
C 2.7485690453 0.4557798895 -2.3836916848
C 2.0024355342 0.0316882951 -1.2850677187
O 3.0796276211 -0.3865421703 -3.4215725882
C 3.2569654291 -1.7406771120 -3.1627723409
C 4.1050270717 -2.1743337346 -2.1469365207
C 4.3058847521 -3.5408731803 -1.9770583446
C 3.6761797313 -4.4590379666 -2.8168349870
C 2.8397779398 -4.0048108669 -3.8339447329
C 2.6221020477 -2.6400873463 -4.0107122587
C -3.2431930771 1.1346831570 3.9624647925
C -2.4160210150 1.7822127658 4.7792387142
Br -2.0097995273 1.1547058816 6.5280057223
Br -1.5191706154 3.3772122697 4.2667045083
C -4.1748125489 -0.7852259357 1.7937870205
H -5.0403207651 0.7310141316 -0.3860154444
H -5.0161970114 2.3080682632 0.4331354842
H -6.1189920708 1.0334086947 0.9901645651
H -4.0206224609 2.6299460180 2.6026864260
H -2.6339338568 2.1804650326 0.6873338269
H 0.7125158625 -0.5858041174 0.8644038035
H 1.7791998274 3.0096246560 0.3565154743
H 3.0842203716 3.7382435767 -1.6251517623
H 3.7139218512 2.0907114219 -3.3792763609
H 1.6898706816 -1.0033290805 -1.1968440686
H 4.5985043788 -1.4531444475 -1.5033490425
H 4.9663518450 -3.8875510322 -1.1884379332
H 3.8400246125 -5.5228213642 -2.6799140772
H 2.3476904369 -4.7131631028 -4.4929668249
H 1.9710538928 -2.2682399628 -4.7949439572
H -3.6835280807 0.2107230255 4.3278717038
H -5.1539322633 -1.0056789353 2.2329382085
H -3.3996414296 -1.1565335045 2.4636353499
H -4.0994501611 -1.3287419550 0.8464266468
