51
CONF62
O 4.5233840810 2.0127785083 1.0641735181
C 3.3988367936 1.2480276549 0.5889401374
C 2.5357702138 2.2311061874 -0.2054849958
C 1.3209179418 1.5971260485 -0.8855400579
C 0.3221518213 0.9730635202 0.0795629796
C -0.9987299206 0.4079554620 -0.5460961289
N -1.7244284248 1.3778045695 0.3104155119
C -0.5862213601 1.9272284393 0.8583190980
O -0.4255809450 2.8446584848 1.6435691594
C -3.0902123150 1.6390480682 0.4214815400
C -3.5719203071 2.5259630904 1.3944320679
C -4.9359598712 2.7747615396 1.4887250627
C -5.7949444902 2.1282237984 0.6154091704
F -7.1296208171 2.3705655069 0.7121770638
C -5.3473679009 1.2450778913 -0.3515068072
C -3.9818518373 1.0014356251 -0.4492776915
C -1.3043709150 -1.0387592800 -0.3036337634
C -1.2527217513 -1.9489703517 -1.3617945890
C -1.4633534833 -3.3066555032 -1.1524562729
C -1.7411351008 -3.7693273918 0.1342149457
O -1.9479342623 -5.1098215776 0.2920289832
C -1.8064145098 -2.8711749930 1.2026768598
C -1.5847502774 -1.5179479823 0.9786148118
C 3.8416281473 0.0650949110 -0.2432139507
C 3.3695289198 -1.2183354959 0.0355217213
C 3.7385042887 -2.3082299869 -0.7513712193
C 4.5961526686 -2.0817838414 -1.8124766327
F 4.9680720924 -3.1362138637 -2.5862985899
C 5.0985480682 -0.8263278109 -2.1181964540
C 4.7109434509 0.2470518939 -1.3236348322
H 5.0760510751 1.4184964432 1.5882437956
H 2.8287464242 0.8702229691 1.4501482499
H 2.2158091909 3.0300515332 0.4731142014
H 3.1704883595 2.6890177634 -0.9737547666
H 0.8068376141 2.3596489562 -1.4828084954
H 1.6527934247 0.8176939648 -1.5832946569
H 0.7909855119 0.2364749596 0.7388636464
H -1.0914289575 0.6557473215 -1.6104411504
H -2.8815209993 3.0168083678 2.0689339118
H -5.3282989976 3.4591263294 2.2330306641
H -6.0518393507 0.7593938162 -1.0177842245
H -3.6120167929 0.3152562516 -1.2032279937
H -1.0442960296 -1.5907619344 -2.3665382165
H -1.4217342607 -4.0119242287 -1.9762575224
H -2.1275413203 -5.2999423551 1.2229104768
H -2.0306619264 -3.2338398948 2.2024143659
H -1.6368396222 -0.8272623919 1.8160558073
H 2.7043750616 -1.3771573800 0.8800662684
H 3.3773745351 -3.3096602442 -0.5433769728
H 5.7732771109 -0.6996745450 -2.9581131103
H 5.0925197449 1.2388608652 -1.5457588293
