53
CONF62
C 3.4613183394 2.4392459558 -1.0072541406
C 2.5636215337 1.2070837964 -0.8458683774
C 3.3983992812 -0.0532147145 -1.1429019208
C 1.4360553177 1.2695810843 -1.8859658011
O 0.5912271581 2.3839830421 -1.5960571038
C -0.4209437707 2.5769074814 -2.5757030992
C -1.4946242362 1.5096648823 -2.5706417138
C -1.8537987973 0.8706709977 -1.3838881467
C -2.8729292525 -0.0734663263 -1.4011518214
C -3.5579048730 -0.3908560866 -2.5670224758
C -3.1990476379 0.2549412056 -3.7475934259
C -2.1676260093 1.1898986463 -3.7521613446
O -3.2744795134 -0.6780096260 -0.2128602927
C -2.4713255765 -1.6607721515 0.3248450176
C -2.8027152324 -2.0808011625 1.6138457292
C -2.0553034949 -3.0836476061 2.2186487191
C -0.9768756030 -3.6658352339 1.5519572863
C -0.6614890080 -3.2402150737 0.2646074455
C -1.4050635662 -2.2408409229 -0.3611816879
C 1.9549623236 1.0998244347 0.5522107359
C 2.2280436668 2.0176242983 1.5693917718
C 1.6586177492 1.8874522593 2.8320805050
C 0.7901041645 0.8365322703 3.0785968853
C 0.4785947693 -0.0924052345 2.0941208324
C 1.0798273023 0.0493109269 0.8480348717
O 0.2470243854 0.8336303672 4.3770543253
C -0.2720547332 -0.2648663024 4.9386748294
F -1.3937112674 -0.7037491901 4.3223459568
F -0.6007210921 0.0488505628 6.1990574382
Br 1.0020002586 -1.8193323195 5.0170867860
H 3.8560812614 2.4639122638 -2.0277802917
H 4.3119021798 2.4002605224 -0.3196163254
H 2.9116220207 3.3679309532 -0.8333739053
H 4.2232060422 -0.1324269501 -0.4281776975
H 3.8210497655 0.0025719457 -2.1519676697
H 2.7959153865 -0.9636222710 -1.0726643330
H 1.8755759789 1.3857779231 -2.8902195476
H 0.8526398256 0.3365020517 -1.8792502062
H 0.0220568629 2.6451033678 -3.5814506136
H -0.8737640873 3.5484642701 -2.3432687741
H -1.3365255064 1.0958735771 -0.4557947413
H -4.3487612694 -1.1329866408 -2.5416619509
H -3.7195662713 0.0163887200 -4.6697503618
H -1.8834197268 1.6787022557 -4.6799517353
H -3.6369016952 -1.6129340806 2.1263785945
H -2.3108915794 -3.4035675988 3.2239556646
H -0.3903265031 -4.4420540213 2.0318294518
H 0.1733648234 -3.6861865865 -0.2675107565
H -1.1543765094 -1.9163976095 -1.3650339436
H 2.8955007235 2.8527367034 1.3953918103
H 1.8798577280 2.5970657955 3.6219893373
H -0.2078546276 -0.9121700649 2.2661662177
H 0.8344322902 -0.6858906903 0.0894547031
