39
CONF10
C 3.0838954768 -1.5939700506 -2.7395174031
C 2.6063735225 -0.3032964848 -2.0771086499
C 2.9988365562 -0.2361292740 -0.6026182737
C 2.4907682685 1.0172390044 0.1107557397
N 1.0285510747 1.0921947263 0.1584913188
C 0.3250261077 0.3728566366 1.0413345638
O 0.7782385214 -0.3582370500 1.9089634812
N -1.1041088555 0.5852119658 0.9310889482
C -1.7654555155 1.8186281691 0.9984561822
C -1.3168727979 3.1308678169 0.9156721858
C -2.2787796685 4.1296602122 1.0584304449
C -3.6303499601 3.8245986643 1.2749166066
C -4.0684517763 2.5074349735 1.3683847669
C -3.1197094239 1.4951711125 1.2334831200
N -3.2883404102 0.1184368830 1.2884431087
C -2.0848449587 -0.3747207857 1.1223928307
N -1.8155727223 -1.7290623086 1.1482411540
C -0.9376385693 -2.3622117951 0.2922150443
O -0.2740589683 -1.8072743954 -0.5627646817
O -0.9283419256 -3.6799091947 0.5538653969
C -0.0590083299 -4.4637800682 -0.3023275283
H 4.1737074595 -1.6879105373 -2.6752051980
H 2.8036087716 -1.6281946032 -3.7969054611
H 2.6434840567 -2.4675614675 -2.2453429202
H 1.5157200490 -0.2325328628 -2.1673382053
H 3.0254886671 0.5647498738 -2.6031492425
H 2.6213230013 -1.1222554838 -0.0773097322
H 4.0926108582 -0.2520004605 -0.5102400314
H 2.8403690270 1.9191683246 -0.4018532305
H 2.8614666625 1.0465051212 1.1396791596
H 0.5400286911 1.5225993069 -0.6129075554
H -0.2740919151 3.3794345541 0.7554620320
H -1.9692651762 5.1680873004 1.0009614418
H -4.3465119932 4.6337809826 1.3758118609
H -5.1118597728 2.2672311219 1.5453728552
H -2.4856144533 -2.3019078394 1.6443063797
H 0.9749096780 -4.1282295497 -0.1949884613
H -0.3769499907 -4.3752357761 -1.3436466654
H -0.1685774510 -5.4894382760 0.0464950152
