47
CONF65
C -2.7850311927 -1.5613036867 1.6483572026
C -2.8512940835 -0.3294294790 0.7745372861
C -3.6597565445 0.8704523323 1.2151374559
C -2.1373121735 0.9112474762 1.3175758089
C -1.3950507920 1.7893882558 0.4019602938
O -1.8177672716 2.3489325283 -0.5861916407
O -0.0875767884 1.8797475546 0.8018763605
C 0.7728833948 2.5900766257 -0.1272624313
C 1.9614218810 2.9497509612 0.6466535551
N 2.9207183514 3.2339953977 1.2228933610
C 1.1318442180 1.7296190212 -1.3182620856
C 1.6779519849 0.4646834586 -1.0978615672
C 1.9923189366 -0.3489182499 -2.1790734887
C 1.7474911020 0.1306058375 -3.4696764531
C 1.2044007785 1.3789905163 -3.6971895016
C 0.8938232336 2.1905317648 -2.6089428585
F 2.0543375192 -0.6645115268 -4.5152629738
O 2.4876442152 -1.6192228877 -2.0726560259
C 3.2099286419 -1.9510177402 -0.9263973226
C 4.3312870082 -1.2150159687 -0.5578293562
C 5.0637336207 -1.6228168103 0.5525585421
C 4.6827126100 -2.7538288908 1.2737910155
C 3.5618162605 -3.4810262334 0.8815224169
C 2.8131273215 -3.0800425957 -0.2233520700
C -4.4469718792 0.8749089268 2.4505270985
C -5.6523732259 1.4273075483 2.5913180644
Cl -6.5064041406 2.2489226823 1.3141027670
Cl -6.5255349381 1.3834159060 4.1015314998
C -2.8082724815 -0.6314324320 -0.7056178704
H -3.6694449071 -2.1849396322 1.4778703350
H -2.7289079327 -1.3221178627 2.7119643710
H -1.8994066716 -2.1497221801 1.3868041540
H -4.0548840634 1.4626842623 0.3956199226
H -1.6952879821 0.7915632677 2.3010131005
H 0.2810797512 3.5107877231 -0.4612210937
H 1.8547190912 0.1068560532 -0.0887001591
H 1.0304601080 1.7047677707 -4.7168953496
H 0.4586204702 3.1707399680 -2.7698047334
H 4.6227102250 -0.3408754275 -1.1312923468
H 5.9412923636 -1.0572184202 0.8491011971
H 5.2602358669 -3.0678418975 2.1369112572
H 3.2612211664 -4.3632936141 1.4375882963
H 1.9347292303 -3.6302488048 -0.5435698132
H -4.0306201190 0.3966277870 3.3318610758
H -1.8597080890 -1.1154798523 -0.9657011527
H -2.9205729863 0.2661026348 -1.3157910825
H -3.6203308289 -1.3224019883 -0.9548949590
