43
CONF6
O 5.8511279629 2.4482479809 -1.1720026750
C 4.9527036995 3.0622182591 -0.3767817854
O 5.1825741893 4.1118359478 0.1942411268
C 3.6705664995 2.3220191224 -0.2776480407
C 2.6657238744 2.8508857319 0.5385624974
C 1.4523101620 2.1944717997 0.6698913385
C 1.2508391647 1.0049773573 -0.0265234334
C 2.2310064332 0.4738571728 -0.8617402782
C 3.4464630781 1.1311923150 -0.9777655328
N -0.0008506945 0.3393601242 0.0930095396
N -1.1442944419 1.0204008615 -0.1953758045
C -2.0962072073 0.0898221148 -0.1506052100
N -1.6170869028 -1.1470660979 0.1666552643
C -0.3030332836 -0.9717175956 0.3273730380
C 0.6056023925 -2.0354103431 0.7164180117
C 1.8219387301 -1.7857106620 1.3731431497
C 2.6797200423 -2.8192485073 1.7085711826
C 2.3302766555 -4.1342968243 1.3901519285
C 1.1197154258 -4.4125551275 0.7753283188
C 0.2358301566 -3.3784810070 0.4543771895
O -0.9443957596 -3.7190084790 -0.1080840319
C -3.4950539412 0.3873605055 -0.4111695919
C -4.4500190676 -0.6400623906 -0.3630760827
C -5.7901830969 -0.3865303287 -0.6064141405
C -6.1996399456 0.9159675435 -0.9031238535
C -5.2757297988 1.9492045708 -0.9572193974
C -3.9223142561 1.7003308657 -0.7149552289
O -3.0764044279 2.7563914232 -0.7862484209
H 6.6574302560 2.9909184529 -1.1889325869
H 2.8471030185 3.7747230472 1.0758803993
H 0.6705531577 2.5877983274 1.3098371350
H 2.0413759636 -0.4398964205 -1.4139986228
H 4.2135303795 0.7251682118 -1.6255160965
H 2.0855546882 -0.7676692753 1.6356677519
H 3.6113592590 -2.6055585771 2.2203662884
H 2.9999664941 -4.9508061312 1.6413179476
H 0.8259820574 -5.4319438223 0.5471700466
H -1.5147003891 -2.9130617188 -0.1402114991
H -4.1170237603 -1.6457633690 -0.1295919096
H -6.5129772794 -1.1939383999 -0.5645887452
H -7.2470634491 1.1276500787 -1.0942332370
H -5.5815052156 2.9647326428 -1.1874411030
H -2.1607721302 2.4491907156 -0.6047140523
