47
CONF111
C -2.8919134639 -3.8415588046 -0.3742506041
C -3.0593416260 -2.5067281568 -1.1101146734
C -3.2426013427 -2.7696980667 -2.6107473318
C -1.9304350092 -1.4781695183 -0.9048168880
C -0.4917319395 -1.9597314583 -1.1984590626
C 0.4411952267 -0.9932969388 -0.4208317698
C -0.4891813466 0.0156693753 0.2835525243
C 0.0909808060 0.6200520427 1.5653596422
C 1.3463345991 1.4040581784 1.2884837485
C 1.2769803900 2.6590442025 0.6739999265
C 2.4257941752 3.3838358395 0.3753724763
C 3.6624559744 2.8370989782 0.6984325247
Cl 5.1280908580 3.7467737832 0.3266725648
C 3.7716581372 1.5959977348 1.3101296480
C 2.6065955082 0.8894846307 1.6005854066
C -1.8010438060 -0.7789331785 0.4675369963
O -1.6956004993 -1.7056024338 1.5622135540
C -3.0160700830 0.0633054311 0.8805272099
N -3.3257057746 1.1528734138 -0.0318832165
C -4.1447546990 1.1491796381 -1.1026649275
N -4.1370533666 2.3370079003 -1.6963304455
C -3.2698214030 3.0487821763 -0.9231848299
N -2.7531320513 2.3761747511 0.0977461372
H -3.7613439703 -4.4770522660 -0.5739393262
H -2.0075511064 -4.3825181669 -0.7276984298
H -2.8088776979 -3.7110910862 0.7063853298
H -3.9892843048 -2.0476517243 -0.7440823613
H -3.4156460935 -1.8390283586 -3.1622870955
H -2.3517423960 -3.2516252685 -3.0296937258
H -4.0942780692 -3.4351526208 -2.7861305504
H -2.1377681451 -0.6588491465 -1.6087908738
H -0.3478221255 -2.9888704913 -0.8542691777
H -0.2868449681 -1.9563110098 -2.2718141191
H 1.1545818448 -0.4841265969 -1.0736490137
H 1.0330552972 -1.5380956773 0.3252007107
H -0.7064517240 0.8335254574 -0.4149089155
H 0.3072203186 -0.1830885761 2.2772118315
H -0.6528713085 1.2806229323 2.0267715084
H 0.3067411880 3.0815812965 0.4260732484
H 2.3603133757 4.3578397298 -0.0966551262
H 4.7445861852 1.1869473567 1.5587531492
H 2.6850602661 -0.0815178867 2.0813805486
H -2.8414544239 0.4947314157 1.8694533390
H -3.8971272255 -0.5820115564 0.9440066156
H -4.7197708734 0.2808726437 -1.3982390181
H -3.0166865180 4.0853086043 -1.1074896947
H -0.9837234478 -2.3281277043 1.3657588728
