65
CONF36
C 8.2468474456 0.8275735720 5.4805917821
O 7.6087102132 -0.4336890055 5.2458835604
C 6.6289595099 -0.4744883308 4.2936703071
C 6.2199621279 0.6212959872 3.5306011611
C 5.2077832944 0.4557060296 2.5839048071
C 4.5904049764 -0.7772965902 2.3716438503
C 5.0164894772 -1.8608601061 3.1516289657
C 6.0209490122 -1.7199084884 4.0979321140
C 3.4535721309 -0.9232359050 1.3995833727
C 2.1028847856 -0.6674465497 2.1131417696
N 0.8906139856 -0.7725448417 1.3026321925
C 0.8145688227 0.2297027132 0.2365816928
C -0.5758927690 0.2185210848 -0.3931035532
C -0.9013798291 -1.1749619823 -0.9395109819
C -0.7314345504 -2.2204351843 0.1581660514
C 0.6632502333 -2.1186689436 0.7712412381
N -2.2674933716 -1.2468273673 -1.4759767813
C -2.5583704715 -0.6626265885 -2.6729160255
N -1.6940380897 -0.4287418159 -3.6503148924
C -2.4588701537 0.1132733736 -4.6724526356
C -2.0747000178 0.5541650673 -5.9377926873
C -3.0572688545 1.0779254952 -6.7790755003
C -4.3956190021 1.1630963405 -6.3740020726
C -4.8009129340 0.7225996465 -5.1111589642
C -3.8172881290 0.2009460402 -4.2836804082
N -3.8600872207 -0.3190065119 -2.9968316861
C -4.9835868621 -0.2889522128 -2.0699951397
C -4.7643745193 0.7020401796 -0.9447405590
C -4.2202580809 1.9617424002 -1.2083885091
C -4.0075868447 2.8743483892 -0.1813053252
C -4.3490813579 2.4999279938 1.1085716295
C -4.8885208432 1.2627944220 1.4119095239
C -5.0915105455 0.3621636427 0.3682182125
F -4.1398601578 3.3851650951 2.1172519174
H 8.7606521087 1.1837478438 4.5796442918
H 8.9765211294 0.6482354924 6.2708282251
H 7.5219071618 1.5802253046 5.8126972447
H 6.6752738133 1.5961405600 3.6563388405
H 4.8972017045 1.3153168309 1.9947273783
H 4.5542654513 -2.8349088005 3.0103148150
H 6.3502416744 -2.5659482549 4.6934426770
H 3.5749335973 -0.2106392684 0.5768754780
H 3.4582381598 -1.9320222988 0.9729129662
H 2.1316640400 0.3407261956 2.5487884548
H 2.0145951543 -1.3773721251 2.9470281882
H 1.5648088479 0.0486131474 -0.5583293500
H 1.0270651292 1.2156098974 0.6670293675
H -1.3266004164 0.4870263887 0.3629871224
H -0.6271424236 0.9589983705 -1.1996622283
H -0.2148712627 -1.4073441572 -1.7620149655
H -1.4865947599 -2.0546336032 0.9387584648
H -0.8839596766 -3.2245123718 -0.2526931562
H 0.7651224822 -2.8401220345 1.5906723781
H 1.4102262894 -2.3895874232 -0.0005054698
H -2.9776123874 -1.1332584582 -0.7628975365
H -1.0377071529 0.4926983037 -6.2538785046
H -2.7791143206 1.4287182277 -7.7681548548
H -5.1348227547 1.5788152015 -7.0512312102
H -5.8392077087 0.7908453182 -4.8025833533
H -5.8749316098 -0.0235010219 -2.6470667597
H -5.1573436414 -1.2925812162 -1.6638151487
H -3.9502693942 2.2341319290 -2.2246997224
H -3.5842260188 3.8547395803 -0.3707070824
H -5.1328292262 1.0085056233 2.4374784835
H -5.5023457862 -0.6199590388 0.5853494403
