52
CONF360
C 1.5524064966 3.0141282966 0.2921266213
C 1.9363061572 1.6150118539 -0.1331734862
C 3.3075981004 1.5453001039 -0.8087503734
C 3.5820863414 0.1416038515 -1.3609546721
C 2.4318181672 -0.3097817388 -2.2741353098
C 1.0699004897 -0.0799688055 -1.6237315144
O 0.9056389256 1.1821262756 -1.0693371760
O 0.9606186503 -1.1552892731 -0.6390142468
C 0.1083765792 -0.9997861441 0.4199794276
C -1.2365984778 -0.7708988570 0.3007487431
O -2.0052285651 -0.5511144240 1.4060215048
C -1.4814931199 -0.6239209264 2.6633881734
C -2.3530820081 -0.3906572628 3.7146063730
C -1.8386259799 -0.4812385705 5.0089001565
C -0.4930022464 -0.7846162478 5.2534875655
C 0.3585744637 -1.0078147824 4.1857524369
C -0.1281225893 -0.9397453464 2.8503555198
C 0.7302500480 -1.1263716470 1.7161743804
O 1.9674570719 -1.3632443311 1.8337436677
O 1.6537940980 -1.2888623571 4.4121941937
O -2.6150157216 -0.2814361197 6.1003518813
C -2.0172025738 -0.7178247252 -0.9276381434
C -3.0820744282 0.1914823064 -1.0366015426
C -3.8561532590 0.2360844232 -2.1845028932
C -3.5824289483 -0.6503928143 -3.2450083800
C -2.5366598379 -1.5625336306 -3.1274999376
C -1.7534140738 -1.5987945160 -1.9823288209
O -4.3762260015 -0.5613382966 -4.3420736390
O -4.8896381012 1.1053220841 -2.3623306947
O 2.4079109088 0.4669562043 -3.4725883432
O 3.8602549284 -0.7797649948 -0.3044437269
O 4.3353895409 1.9242079678 0.1041782024
H 1.5328619723 3.6823710785 -0.5749591682
H 0.5639852168 3.0102343192 0.7604982082
H 2.2791903280 3.3933990689 1.0137880230
H 1.9303045195 0.9485832793 0.7410926917
H 3.3276951235 2.2646813409 -1.6358348434
H 4.4998017817 0.1776159212 -1.9618053866
H 2.5365173839 -1.3813706062 -2.4931732201
H 0.2722102324 -0.1806640737 -2.3669737130
H -3.3951264194 -0.1564939420 3.5268853085
H -0.1241275748 -0.8419471311 6.2711598843
H 2.0745308449 -1.3881565088 3.5138662477
H -3.5247562944 -0.0901216747 5.8309264874
H -3.2978137659 0.8800941637 -0.2251658372
H -2.3424435160 -2.2526483474 -3.9438103287
H -0.9542273190 -2.3264116988 -1.9005542547
H -4.0930838003 -1.2168747881 -4.9952565761
H -4.9828768029 1.6585521431 -1.5744166745
H 3.2041524280 0.2579270787 -3.9774163640
H 3.0500203010 -0.9719410691 0.2079226576
H 4.5197697064 1.1363431756 0.6393088983
