50
CONF137
C 1.2415665709 -0.2648612926 1.4895950419
C 2.2089967405 -0.7007835104 0.4111751998
C 1.7015264134 -1.2636391482 -0.7594600846
C 2.5617983150 -1.5607089721 -1.8349063101
C 3.9033900037 -1.2901175975 -1.7792153063
C 4.4647706658 -0.7367502009 -0.6088696973
C 3.6167301108 -0.4973836172 0.5208983231
C 4.3397794925 -0.0879725207 1.7023106527
N 5.6255673227 0.2165290481 1.6739888300
C 6.2762669257 0.0715582411 0.4942777407
N 5.7910630578 -0.4498258572 -0.6189236752
N 7.5720446821 0.5145454267 0.4821555108
N 3.7517382128 0.0072179483 2.9369096676
C 0.2263481562 -1.5114004522 -0.9428878094
N -0.4357097729 -0.2964373414 -1.4176970303
C -1.7945160440 -0.0888715521 -1.2180715040
C -2.6600706132 -1.1686588447 -1.0033548541
C -4.0289760952 -0.9305974711 -0.8469084641
C -4.5492663145 0.3657495010 -0.9104191485
C -3.6672032214 1.4375525765 -1.1128438401
C -2.3000429233 1.2193861369 -1.2673738937
O -4.2531563247 2.6677984125 -1.1362645776
C -3.4155041360 3.7882387270 -1.3912576329
O -5.9022734382 0.5825464588 -0.8187355863
C -6.3454413464 0.8003561942 0.5259149658
O -4.9496499433 -1.9123695899 -0.6283495064
C -4.4861677932 -3.2563087014 -0.6077107009
H 1.5739466977 0.6545882836 1.9744354841
H 0.2531201531 -0.0705553851 1.0709502614
H 1.1032354839 -1.0328949015 2.2639116708
H 2.1334659832 -1.9905764655 -2.7364388073
H 4.5638123027 -1.4791465528 -2.6178527791
H 8.1426460043 0.1913087398 -0.2810006256
H 2.9453927082 -0.5578834775 3.1329786186
H 0.0918589308 -2.3227725648 -1.6724424807
H -0.2294795506 -1.8571513973 -0.0020125423
H 0.1370731446 0.5304739000 -1.3491169687
H -2.2730812148 -2.1773319088 -0.9888050170
H -1.6168603424 2.0439922728 -1.4310704003
H -4.0753050905 4.6571763723 -1.3936708259
H -2.9215734759 3.7037636944 -2.3681011663
H -2.6567339028 3.9105358410 -0.6065116816
H -7.4254978898 0.9570953350 0.4756739900
H -6.1307330038 -0.0751406723 1.1523431817
H -5.8657265692 1.6896198329 0.9549780146
H -3.7676550399 -3.4220827077 0.2064354854
H -5.3709883305 -3.8721228218 -0.4395015639
H -4.0258045846 -3.5357375778 -1.5644411399
H 4.4142133838 0.1045464219 3.6913720944
H 8.0155020378 0.6342736259 1.3769200450
