35
CONF62
C -2.4785889653 -1.2638594097 2.6357081124
C -2.4412526832 -1.4910018794 1.1431419081
O -3.3386936608 -2.0984542926 0.5565317161
N -1.3517477487 -0.9754152267 0.5078787346
C -1.1813872521 -1.0369288008 -0.9321071642
C 0.2059148987 -1.6016980767 -1.2618462659
O 0.4624117932 -2.8166048627 -0.6492009612
O 1.2163268481 -0.6676138713 -0.8111721713
C 1.1483564241 0.6191036779 -1.4494007655
C 2.3075673037 1.4347013431 -0.9168568149
O 2.1353417815 1.8217231386 0.4738230590
P 2.0614338963 0.7841069596 1.6987015174
O 2.9839635202 -0.4684281670 1.3165492978
O 2.8825009502 1.5122726961 2.8536293546
O 0.6841298836 0.4781471421 2.1656410899
C -0.2188732100 1.2723662417 -1.1968190247
O -0.3521331262 2.4598472287 -1.9840516675
C -1.3311271771 0.3228266063 -1.6197481714
O -2.6136120336 0.8504602929 -1.3065190701
H -1.5497922107 -0.8481634496 3.0313104562
H -3.3002233236 -0.5750157783 2.8566282874
H -2.7007143675 -2.2127425837 3.1300044852
H -0.6729540833 -0.4516019945 1.0588857988
H -1.9418850239 -1.7187358871 -1.3254949850
H 0.3207405692 -1.7408846734 -2.3457288002
H 0.1072144219 -2.7765588614 0.2538174603
H 1.2939753423 0.5055641415 -2.5368236513
H 2.3804912477 2.3758219997 -1.4647433896
H 3.2436940797 0.8774980553 -1.0274030702
H 2.5646492609 -0.9965948528 0.6078498231
H 3.7666402037 1.8120140501 2.5898235123
H -0.3285933016 1.5051577694 -0.1300528047
H -0.0733269175 3.2144602909 -1.4513298371
H -1.2398850060 0.1564786734 -2.7073774401
H -2.6505623339 1.7377521700 -1.6897600524
