54
CONF62
C -3.1020984621 0.5125478218 -1.9632289919
C -2.5580838046 0.6212672853 -0.5168171448
C -3.1286881252 1.9154572019 0.1024256410
C -4.5876871501 1.7727199403 0.5328928376
C -4.8000982010 0.5741891220 1.4376948109
O -5.6693916564 0.5567005806 2.2964950207
C -3.9619370681 -0.5985370699 1.1694787870
C -2.9729891758 -0.6151261234 0.2581282911
C -2.2689860651 -1.9006501144 -0.0977364631
C -0.7414958223 -1.7881007733 -0.2545299050
C -0.3897682055 -0.6101670898 -1.1772296464
C -1.0045353714 0.6672476974 -0.5590896313
C -0.3165449675 0.8253963671 0.7996016447
O -0.8911795147 1.0516687609 1.8429251053
C 1.1852870005 0.5511310631 0.8354617554
C 1.9061485760 0.4890526997 -0.5152597775
C 1.0923467947 -0.3697977210 -1.5521438842
C 1.9110219060 -1.6604391374 -1.7973752385
C 2.8517045166 -1.7604680506 -0.5937888506
C 3.2744060381 -0.3060120424 -0.4026233889
C 4.0343786222 0.0351486327 0.8749947589
O 4.7358132373 1.0355458638 0.9049138019
C 4.0012687446 -0.8716374938 2.0831254192
O 4.7212260548 -0.3433143052 3.1621059615
O 4.1219630820 0.0133540978 -1.5035548314
C 2.1600103911 1.9179733593 -1.0032320294
H -2.6557000248 1.2926909469 -2.5900641916
H -2.9048969409 -0.4536484732 -2.4303611741
H -4.1857836760 0.6534085623 -1.9653402209
H -2.5447769967 2.1853485474 0.9816961466
H -3.0265248744 2.7279093049 -0.6284490360
H -4.9397499266 2.6658046324 1.0558967664
H -5.2529825728 1.6318416831 -0.3303845872
H -4.2174214796 -1.4947163935 1.7302134111
H -2.6823680445 -2.2508807680 -1.0557569740
H -2.5199999308 -2.6679948485 0.6406818978
H -0.3650777743 -2.7316637496 -0.6606415620
H -0.2928293307 -1.6751058564 0.7387563480
H -0.8972178248 -0.8080102717 -2.1281165029
H -0.7124044656 1.5297770233 -1.1775540122
H 1.6337731981 1.3033110713 1.4953827271
H 1.2647001901 -0.4001336094 1.3733630040
H 1.0611989254 0.2083813845 -2.4826287720
H 1.2851922594 -2.5473826908 -1.9206855454
H 2.5084651434 -1.5537298651 -2.7055016257
H 2.3082965867 -2.1215459282 0.2874240250
H 3.7138663823 -2.4111668304 -0.7627133672
H 2.9634468353 -1.0768254213 2.3831492346
H 4.4238034356 -1.8393283666 1.7527597228
H 5.1593738357 0.4558098782 2.8256994473
H 4.6141616102 0.8087388014 -1.2524330497
H 1.2301606031 2.4948286460 -1.0134542609
H 2.5717011169 1.9219267402 -2.0147512105
H 2.8575015566 2.4372049663 -0.3366697993
