40
CONF21
C 1.7147202771 1.8006505132 2.5613392762
O 2.9824958928 1.9569317429 1.8876340487
C 3.8561234933 0.9436684499 2.0836381304
O 3.6493940042 -0.0016322674 2.8065197864
C 5.0885153107 1.1483147807 1.2397003025
S 4.9409745301 0.1644395522 -0.3205841281
C 3.4020427606 0.7972523506 -0.9606429298
C 2.2724911843 -0.0181803264 -0.8901984902
C 1.0230862269 0.3874809107 -1.3715793501
C 0.9611627988 1.6584220616 -1.9581316260
C 2.0565914279 2.4968679833 -2.0490336923
C 3.2781035101 2.0628877240 -1.5501435472
Cl 4.6446790220 3.1406177278 -1.6763840897
F -0.2083160910 2.0802385727 -2.4812970675
N -0.0578149730 -0.4862354742 -1.3307466055
C -1.1528788749 -0.1658334637 -0.7583328072
N -2.2709249040 -0.9786069271 -0.8199930630
N -3.2141504305 -0.6873276347 0.1912542312
C -3.0785783642 0.5417443530 0.7852368775
O -3.8763645822 1.0743587100 1.5181717377
S -1.4877640489 1.2593814326 0.2716379357
C -4.5497261883 -1.2469287019 -0.0458550982
C -4.4343685986 -2.7558917810 -0.2228678799
C -3.4263047408 -3.0756454542 -1.3263006685
C -2.0803823322 -2.4246627450 -1.0316880718
H 1.1314800232 2.6807192603 2.2918751042
H 1.8621741075 1.7457252409 3.6428564003
H 1.2173558007 0.8902292126 2.2167211831
H 5.9528596449 0.7256203606 1.7565876892
H 5.2540572061 2.2015757452 1.0047336489
H 2.3549233812 -0.9981530364 -0.4333752325
H 1.9506515701 3.4692098762 -2.5144632120
H -5.1567300704 -0.9733589164 0.8191108619
H -4.9834435668 -0.7822949965 -0.9443724641
H -4.1124951066 -3.2078424729 0.7232147856
H -5.4205676686 -3.1632010230 -0.4669089901
H -3.2801889475 -4.1565449035 -1.4174179590
H -3.8008099189 -2.7106908418 -2.2905803823
H -1.3865515676 -2.5278831460 -1.8665345333
H -1.6155224039 -2.8654225602 -0.1360951234
