42
CONF7
C 0.5985178010 3.3720313208 4.4394620446
C -0.5505935766 2.7662542926 3.9471050803
C -0.5012492607 2.0118089884 2.7767351880
C 0.6987682826 1.8544711465 2.0864586871
C 1.8489723320 2.4730528132 2.5856061472
C 1.8009668121 3.2244785401 3.7514828386
C 0.8055473360 1.0598542462 0.8008092959
C -0.4952278931 0.5311939672 0.2425135445
C -1.1268572708 -0.5601022712 0.8480708250
C -2.2728895192 -1.1199576841 0.2984858916
C -2.7904097858 -0.5756908819 -0.8715085574
C -2.2058608001 0.5304216328 -1.4758315895
C -1.0586339211 1.0758651576 -0.9116557405
Cl -4.1983148552 -1.3119165248 -1.6108341599
C 1.7826578542 -0.1289127459 0.9223997521
O 2.3339653822 -0.4438605676 1.9450818554
C 2.0031726985 -0.9660467806 -0.3515993109
C 1.7332510120 -0.2972371556 -1.7019492521
O 2.2060125761 0.7558613638 -2.0791588234
C 0.8026744761 -1.1626560947 -2.4620501616
C 0.2903555686 -0.9724106934 -3.7403058485
C -0.6195828456 -1.9081134307 -4.2188339048
C -1.0063879297 -3.0059727469 -3.4372860408
C -0.4842931677 -3.1980050682 -2.1629324614
C 0.4265579177 -2.2612100232 -1.6891546640
C 1.1146567299 -2.2355983510 -0.3748989043
O 1.0216061937 -3.0583461981 0.5038612493
H 0.5596056085 3.9592249110 5.3512330251
H -1.4942477485 2.8807903410 4.4709903968
H -1.4082553344 1.5538171637 2.3976683519
H 2.7906701036 2.3576132502 2.0571758971
H 2.7042518138 3.6951774849 4.1261833808
H 1.2533205598 1.7096973889 0.0355183713
H -0.7039576689 -0.9954813828 1.7494935934
H -2.7451716240 -1.9799388007 0.7585973514
H -2.6297302136 0.9445075621 -2.3831718997
H -0.5771812519 1.9208104714 -1.3953065134
H 3.0495314550 -1.2915411617 -0.3061637798
H 0.5910811270 -0.1125935125 -4.3298266022
H -1.0448756462 -1.7889157814 -5.2101666181
H -1.7267081167 -3.7127001229 -3.8360084445
H -0.7757157082 -4.0416720682 -1.5462896015
