26
CONF8
C -3.4176347499 -2.4382513779 0.1898105686
O -3.0193650775 -1.1714056442 -0.3864711631
P -1.8630205202 -0.3025008333 0.2944454091
S -1.8546840972 -0.1859433299 2.2209504671
O -1.9295143093 1.0591914833 -0.5373046208
C -2.7785996375 2.1451601443 -0.0934908281
O -0.5603895230 -0.9947632239 -0.4198103694
C 0.7110822809 -0.4917542440 -0.2677946608
C 1.4104673832 -0.6811672891 0.9211856709
C 2.7105448726 -0.2171226657 1.0462067755
C 3.2924190154 0.4262505199 -0.0379406009
C 2.6254137937 0.6142767098 -1.2406649266
C 1.3234677229 0.1499857358 -1.3527748372
Cl 0.4646201116 0.3481403415 -2.8488971717
N 4.6783791305 0.9250755544 0.0818357061
O 5.1629350752 1.4888674731 -0.8910639551
O 5.2511200801 0.7421784066 1.1482558138
H -3.6699748638 -2.3115223116 1.2462699530
H -2.6128791717 -3.1710947523 0.0784310932
H -4.2926296984 -2.7570140606 -0.3768113158
H -2.5494097011 2.4053947469 0.9434002376
H -2.5535416297 2.9806464045 -0.7563543638
H -3.8309766594 1.8624387855 -0.1889928347
H 0.9139446708 -1.1875696127 1.7396903827
H 3.2723660323 -0.3492145271 1.9615107490
H 3.1158592682 1.1117179638 -2.0669400853
