30
CONF4
C 3.1863536864 -0.2638762449 -0.4271928911
C 2.0586779157 0.4833502250 0.2925186693
C 1.2018696071 -0.4602090431 1.1555658483
C 0.2890809444 -1.3562099169 0.3130960832
C -0.6448851566 -0.5380382297 -0.5970244254
C 0.2392338985 0.3434063490 -1.5005327009
C 1.1653422605 1.2592795662 -0.6916956992
C -1.7207255534 0.2650425850 0.1742483351
C -2.7036346767 0.9401059444 -0.7891005469
C -2.4996734609 -0.6186155893 1.1548356057
H 3.8296944250 -0.7804566270 0.2936911124
H 2.8051350390 -1.0137870651 -1.1272590926
H 3.8087502522 0.4345163412 -0.9974398014
H 2.5324668922 1.2141190074 0.9625346349
H 0.5874479576 0.1404211118 1.8395316843
H 1.8564843089 -1.0772596669 1.7841925402
H -0.2829324223 -2.0251267621 0.9640524950
H 0.9023924095 -2.0062542745 -0.3244558374
H -1.1927832318 -1.2449038069 -1.2396792401
H 0.8425614097 -0.3178361779 -2.1361033445
H -0.3704563694 0.9438762486 -2.1835287384
H 0.5593117653 1.9817842150 -0.1299640166
H 1.7940830047 1.8457624578 -1.3738289292
H -1.2286092063 1.0541642156 0.7577385638
H -3.4813658409 1.4738821967 -0.2326957002
H -2.2126894538 1.6628262483 -1.4464533915
H -3.1970946608 0.1889310376 -1.4190600672
H -1.8720242908 -0.9852793551 1.9719407677
H -3.3267783527 -0.0554467264 1.6000693405
H -2.9252326981 -1.4881683644 0.6376571359
