45
CONF615
C 9.2848120797 0.8921663168 4.4023559075
C 8.1195096279 0.5025506931 3.8906424980
C 7.9548530796 0.3543305793 2.4288742938
O 8.8022975481 0.5511251366 1.5885189681
O 6.6855286718 -0.0431069843 2.1350156357
C 6.4183948088 -0.2118269172 0.7262885537
C 4.9556884804 -0.6234017080 0.6397906274
C 4.5397550725 -0.8352418801 -0.7986842667
C 3.0519599996 -1.2695193609 -1.0295685855
C 2.0010991685 -0.1094444974 -0.9543552159
C 0.5293847582 -0.6169833073 -0.7432516550
C -0.5506235898 0.4606228455 -1.1176646752
C -1.9628123883 0.1502636421 -0.5034585965
C -3.1257781373 0.9263549029 -1.2185811881
C -4.4427447245 0.9779030182 -0.3652695090
C -5.7120858717 1.3297028669 -1.2128918165
C -6.9391998415 1.7877467324 -0.3576916741
F -7.1596002353 0.9204867851 0.6405640140
F -8.0217962553 1.8257081352 -1.1454655566
F -6.7411597997 3.0064669647 0.1543388154
F -5.4151968706 2.3318982030 -2.0724092123
F -6.0863990274 0.2386823807 -1.9131871924
F -4.6391844939 -0.2289812068 0.2121577857
F -4.2956622932 1.9113742561 0.6017349511
F -2.7213025353 2.1936206180 -1.4584979201
F -3.3946059569 0.3140702735 -2.3928869624
F -2.2025161536 -1.1753841761 -0.6105661750
F -1.9505697603 0.4974945763 0.8031802345
F -0.1405465922 1.6658474094 -0.6628324098
F -0.6641245108 0.5066462464 -2.4634794422
F 0.3728062499 -0.9507598631 0.5590417140
F 0.3263473642 -1.7095709275 -1.5101814202
F 2.3147566653 0.7081618880 0.0828852684
F 2.0551468129 0.6004985930 -2.1011891753
F 2.7368625747 -2.2040126548 -0.0896792910
F 2.9490827300 -1.8352708274 -2.2504001277
F 5.3052695312 -1.8280402675 -1.3484336894
F 4.7520011692 0.2937453864 -1.5454606271
H 10.1254143765 1.1032071104 3.7481472637
H 9.4215542708 1.0071944027 5.4718669192
H 7.2565509633 0.2831852447 4.5110778036
H 7.0864951998 -0.9749209438 0.3166224413
H 6.6103547952 0.7300287024 0.2037570290
H 4.3274636993 0.1450663972 1.0938092290
H 4.7949789606 -1.5588982487 1.1824452966
