63
CONF608
C -10.7492769926 2.0372117716 2.3533314089
C -9.8380812429 1.6457932003 1.1918475196
C -8.3881944502 1.4317797251 1.6249002741
C -7.4649487886 1.0376459089 0.4731139630
C -6.0163182870 0.8233069628 0.9087559874
C -5.0926997389 0.4249341227 -0.2414534878
C -3.6452443460 0.2077364619 0.1965236137
C -2.7222954896 -0.2014781122 -0.9502972606
C -1.2742394267 -0.4142859470 -0.5110673238
C -0.3671717201 -0.8662707930 -1.6563757955
C 1.1194145984 -0.9470550614 -1.2960121112
C 1.4388511472 -1.9555296083 -0.1904831995
C 2.9343746320 -2.0802601339 0.1180742744
C 3.7559865572 -2.7038831235 -1.0120221918
C 5.2155329628 -2.9784268557 -0.6322191337
C 6.0058535848 -1.7424942788 -0.1884013340
C 6.0531703819 -0.6347854666 -1.2420888806
C 6.9803421605 0.5296986061 -0.8789103508
C 6.5318836006 1.3135588277 0.3549765605
C 7.4323624918 2.5005642642 0.6795992175
O 7.4124655790 3.5202347009 -0.3241233345
H -11.7820065022 2.1853767634 2.0233054316
H -10.7524106203 1.2612675259 3.1264250408
H -10.4096898403 2.9680646454 2.8202815088
H -9.8720120894 2.4229142970 0.4170348402
H -10.2131402040 0.7275681912 0.7209347656
H -8.3531196159 0.6548496734 2.4015401176
H -8.0112107085 2.3507352260 2.0955949377
H -7.4999329741 1.8147430235 -0.3031642912
H -7.8426209534 0.1188315421 0.0029278202
H -5.9820833211 0.0478219263 1.6866897201
H -5.6376227873 1.7426213524 1.3770763734
H -5.4720132774 -0.4939499217 -0.7102282643
H -5.1250946476 1.2005092060 -1.0193311250
H -3.2632498607 1.1282526665 0.6598809246
H -3.6148699781 -0.5632359579 0.9790921673
H -2.7556718340 0.5657667421 -1.7363645173
H -3.1013371940 -1.1254549238 -1.4094626464
H -0.8817953546 0.5190849247 -0.0821162369
H -1.2550233905 -1.1558769825 0.2976055515
H -0.7054048425 -1.8473487782 -2.0186092745
H -0.4897027234 -0.1714621807 -2.4980457185
H 1.6813117305 -1.2061372171 -2.2014426695
H 1.4738472002 0.0468083779 -0.9865388865
H 0.9167816882 -1.6620659950 0.7279706285
H 1.0396252045 -2.9411122866 -0.4713373142
H 3.3276073599 -1.0840380534 0.3629374189
H 3.0651616692 -2.6906868790 1.0222183244
H 3.2862196230 -3.6519733929 -1.3069799639
H 3.7240812818 -2.0628720276 -1.9008439196
H 5.2385722761 -3.7216954850 0.1758591306
H 5.7245956446 -3.4378564628 -1.4900515359
H 7.0334185084 -2.0482395913 0.0516115992
H 5.5805177070 -1.3539886556 0.7444145642
H 5.0432891312 -0.2389145309 -1.4138511515
H 6.3791552952 -1.0693032907 -2.1969292595
H 7.9999487179 0.1494289432 -0.7183895495
H 6.5197772009 0.6545908664 1.2327041162
H 5.5055230708 1.6758446013 0.2096803207
H 8.4632758189 2.1528121867 0.8585378983
H 7.0873226471 2.9908879574 1.5954979772
H 7.8350090800 3.1685660823 -1.1141987012
H 7.0278728638 1.2083838121 -1.7413892138
