63
CONF10
C 2.3573343980 -0.5151517580 0.9428173154
C 2.1907216756 -1.5429416427 -0.1720637175
N 1.4635818218 -0.9753264502 -1.3131472520
C 2.2129710556 0.1571867836 -1.8679637348
C 2.3783502761 1.2643500869 -0.8308697280
C 3.0940431956 0.7086574567 0.3998111134
N 3.3220990190 1.7261357056 1.4252466988
C 2.3783406394 2.4480952778 2.1506787478
C 0.9893490931 2.4570245806 2.1388548698
C 0.3358405481 3.3249639459 3.0185939716
C 1.0478055712 4.1593248378 3.8824677196
C 2.4451188903 4.1556125439 3.8977011388
C 3.0904536835 3.2941636784 3.0259710062
N 4.4341546668 3.0573449778 2.8027842305
C 4.6058711166 2.0962015289 1.8237355027
O 5.6710988635 1.6575267677 1.3928189767
C 1.2321523482 -1.9949972685 -2.3484803907
C 0.1109002463 -2.9837053970 -2.0144427338
C -1.3022568068 -2.4697781551 -2.3088005396
C -1.7467400049 -1.2231130875 -1.5222825872
C -3.0994408314 -0.7533689636 -2.0330933898
C -3.1886361896 0.3656210355 -2.8640336780
C -4.4135797496 0.7931533474 -3.3739758671
C -5.5458705571 0.0746152974 -3.0358033641
C -5.5062494701 -1.0424472597 -2.2177748441
C -4.2718952733 -1.4481023635 -1.7191767067
F -6.7499775435 0.4851150010 -3.5213543879
C -1.7702183847 -1.3933221893 -0.0140358559
C -1.6317467332 -0.2557695806 0.7892158514
C -1.6799103756 -0.3309669613 2.1771891464
C -1.8696516553 -1.5755160066 2.7540059221
C -2.0147098905 -2.7284545093 2.0048071974
C -1.9643482284 -2.6251970349 0.6147888859
F -1.9125548542 -1.6663244917 4.1117736131
H 2.9254044168 -0.9558609554 1.7695362968
H 1.3693018485 -0.2335772366 1.3240943777
H 1.6385507942 -2.4051735318 0.2143528513
H 3.1904397386 -1.9093461816 -0.4881554990
H 3.2141688047 -0.1609415626 -2.2281941289
H 1.6645230492 0.5458792391 -2.7336893064
H 1.3897590911 1.6505728788 -0.5579167878
H 2.9581477071 2.0897592246 -1.2583929384
H 4.0995158426 0.3930851447 0.0947772160
H 0.4202437619 1.8184969024 1.4758816852
H -0.7491656952 3.3460125846 3.0245306826
H 0.5114663670 4.8224100513 4.5532444785
H 3.0073178507 4.8004193952 4.5648166052
H 5.2061277822 3.5047912661 3.2710765584
H 2.1679996337 -2.5521127699 -2.5521748573
H 0.9699625208 -1.4737688578 -3.2789140450
H 0.2673397885 -3.8834405032 -2.6217653403
H 0.1892533727 -3.3078571255 -0.9711060965
H -1.3688804772 -2.2175649969 -3.3752753855
H -2.0268804933 -3.2783164807 -2.1470257475
H -1.0261417913 -0.4260524958 -1.7342601852
H -2.2871548508 0.9164130983 -3.1180280539
H -4.4898181532 1.6646404480 -4.0154651842
H -6.4202268351 -1.5745903493 -1.9762859624
H -4.2254411370 -2.3173320417 -1.0694162369
H -1.4823397563 0.7113510236 0.3150911563
H -1.5675532267 0.5501219659 2.8003420996
H -2.1609288473 -3.6843209709 2.4964454892
H -2.0773882807 -3.5292693760 0.0259140382
