41
CONF8
C -0.7024342394 2.8920625161 2.1485917849
C -1.6753264617 1.9013996329 2.7379965441
O -2.5444647304 1.4547661718 1.6460831164
C -3.4020328620 0.4774427514 1.9342247882
O -3.5453042662 -0.0289476253 3.0293709100
C -4.2569413243 0.0716722467 0.7340125076
C -5.5961744317 0.7917140833 0.8001381673
O -3.6631224109 0.4200334294 -0.5200846029
C -2.4879016091 -0.1811523376 -0.8744034303
C -1.8725341261 -1.2068443138 -0.1516901561
C -0.6677821392 -1.7394746511 -0.6067610299
C -0.1064094255 -1.2395999029 -1.7651579527
C -0.7057541725 -0.2305845848 -2.5024202073
C -1.9045735135 0.3007597737 -2.0510187566
O 1.0948013882 -1.8132091157 -2.2507120163
C 2.2138414373 -1.3045656733 -1.7641581831
N 2.3960523121 -0.3428352050 -0.9171839355
C 3.7896877111 -0.2765293005 -0.8080372013
C 4.6137966636 0.5505449992 -0.0554368942
C 5.9920053720 0.3665412846 -0.1666518855
C 6.5098369272 -0.6195810944 -1.0096274432
C 5.7116736455 -1.4671150250 -1.7791646833
C 4.3599169111 -1.2485458803 -1.6368502718
O 3.3271147580 -1.9212737742 -2.2624751161
Cl 8.2574288689 -0.8081726167 -1.1111174918
H -0.0316856668 3.2458295723 2.9367976069
H -1.2265025057 3.7545282240 1.7277952335
H -0.0989995346 2.4242816183 1.3653171867
H -2.3061076187 2.3462490351 3.5134350671
H -1.1711790868 1.0230137735 3.1513248767
H -4.4116917884 -1.0127226614 0.7974485162
H -6.0987605029 0.5485991562 1.7390083501
H -5.4496339437 1.8737327689 0.7403932893
H -6.2246720110 0.4663692690 -0.0321381385
H -2.3056192812 -1.6067791143 0.7572104501
H -0.1733248639 -2.5330768198 -0.0567134425
H -0.2375489750 0.1360320175 -3.4096444058
H -2.3992449153 1.0953233920 -2.5991871415
H 4.2067721813 1.3144999529 0.5975030656
H 6.6693440886 0.9912792148 0.4037791133
H 6.1234544592 -2.2285059797 -2.4297959977
