53
CONF89
C -5.4417890892 -0.9049198889 -1.9251176702
O -4.1290955591 -0.2805759151 -1.8603475274
C -3.4672492245 -0.4601734052 -0.7172736680
O -3.8805541419 -1.0749849006 0.2412832551
C -2.1161854439 0.2853951301 -0.7280864736
C -2.3239811685 1.6273375435 0.0203813810
C -1.9745887450 1.2675452345 1.4453348302
C -1.2339290581 0.0761403253 1.5011788833
C -1.0909495685 -0.4197521611 0.1444279938
N -0.0924390092 -1.0997922143 -0.2902057997
N -0.0228657887 -1.2747929001 -1.6490870685
C -1.1263639425 -0.8176659718 -2.4999912569
O -1.5915447616 0.4486381852 -2.0353758476
C 1.1917538224 -1.6019540931 -2.2209742067
O 1.2839667916 -1.9416836427 -3.3872247027
N 2.3113504214 -1.4570415232 -1.3500549985
C 2.4547759898 -0.2290904237 -0.6292831512
C 2.1502414853 0.9663780637 -1.2758108743
C 2.1671128276 2.1619017687 -0.5655520820
C 2.5211010596 2.1319172961 0.7723515495
C 2.8787180231 0.9571045673 1.4193428568
C 2.8330698424 -0.2358856322 0.7121900414
O 2.5877757316 3.3525644445 1.4842689090
C 1.4595049611 3.7167066260 2.1331470886
F 0.3979187364 3.8560532220 1.3041309204
F 1.6874459296 4.8952615941 2.7233897719
F 1.0908332704 2.8299341863 3.0859840474
C 3.3753377939 -2.3646057812 -1.3749443279
O 4.4870626423 -2.1050221347 -0.9632232610
O 2.9834760436 -3.5481538414 -1.8593107382
C 4.0366288531 -4.5378206652 -1.9791598471
C -0.7341841454 -0.4083562987 2.7060681832
C -0.9984504346 0.3027741741 3.8709040174
C -1.7454640754 1.4783872118 3.7972976063
C -2.2423271459 1.9855066506 2.5985864623
Cl -2.0600516778 2.3673202095 5.2793904810
H -5.3453517304 -1.9841200562 -1.7896192460
H -6.0886995385 -0.4855996420 -1.1517614498
H -5.8196227863 -0.6697726428 -2.9185149476
H -1.6045459687 2.3523757378 -0.3797701111
H -3.3306930826 2.0355950800 -0.0979865070
H -0.7557812382 -0.6897787298 -3.5161778563
H -1.9372693730 -1.5586150801 -2.4774303819
H 1.8831063474 0.9665510820 -2.3279982451
H 1.9202715448 3.1018652661 -1.0458123584
H 3.1640326492 0.9757295761 2.4650776006
H 3.0645848462 -1.1714936695 1.2076592612
H 4.4427898218 -4.7737478482 -0.9932038268
H 4.8284693096 -4.1656719070 -2.6328140384
H 3.5543400086 -5.4104821028 -2.4167669310
H -0.1617364011 -1.3292181882 2.7424714548
H -0.6353003059 -0.0505489397 4.8289826224
H -2.8046567347 2.9123372625 2.5750298866
