26
CONF451
C -2.7305678602 -0.3092343135 0.2604899344
C -1.2439288475 -0.4881457984 0.5462617644
C -0.4271523897 -0.6820046575 -0.7429848391
C 1.0317268006 -1.1547438001 -0.5613831838
C 2.0386286377 -0.2489456672 0.1572433257
C 2.1537430357 1.1480683790 -0.4403014149
O 3.2350937742 1.8679602776 0.1555322892
O 1.8070014903 -0.1916767598 1.5707879182
O 1.0308557257 -2.4521739138 0.0517198913
O -1.0836230078 -1.6429274022 -1.5798229545
O -0.7759945217 0.6521766913 1.3035150390
O -3.4731460026 -0.1330785201 1.4671514392
H -2.8672318948 0.5498889957 -0.4188568009
H -3.1283980260 -1.1988115343 -0.2298677132
H -1.1076741819 -1.3471687738 1.2148142823
H -0.4345392978 0.2613954652 -1.3067006554
H 1.4106464310 -1.3044297636 -1.5808938188
H 3.0156694742 -0.7380087958 0.0516498372
H 1.2114802026 1.7027195779 -0.3182934232
H 2.3707373604 1.0768782539 -1.5116159092
H 0.9350594247 0.2388557467 1.6889642419
H 1.0926820566 -2.3065776515 1.0080545919
H -0.9049550301 -2.5110023263 -1.1874443088
H -0.8955460961 1.4461951082 0.7609479225
H 3.1091457729 1.8087979190 1.1127955479
H -3.0518736983 0.5854602175 1.9578253237
