60
CONF210
C 6.2796358462 1.5042132117 0.3113804776
C 6.0760280596 0.8947222239 1.7001694010
N 5.6634946390 -0.5046971101 1.6671101855
C 6.7109264169 -1.5205719344 1.7941467854
C 7.0227166076 -1.8653644477 3.2476210779
C 4.3581260447 -0.9461397655 1.6361118943
O 4.0702899798 -2.1339973570 1.7570957539
N 3.4058517895 0.0478574454 1.4471156238
C 2.0082926038 -0.0938643030 1.4180662695
C 1.3391987259 -1.3029883873 1.6041996007
C -0.0579785055 -1.3737413870 1.5432723895
C -0.8043711533 -0.1947151761 1.3450284782
C -0.1337645595 1.0152921036 1.1606954757
C 1.2504008525 1.0612069917 1.1876503797
O -2.1527931775 -0.2716691525 1.4176172393
C -2.9451689137 0.5944812082 0.5839186119
C -4.1835465747 -0.2188837249 0.2322413564
C -5.1381954636 0.5606642422 -0.6640857811
N -4.4588873289 0.9272793011 -1.9050282437
C -5.2807251548 1.5498000049 -2.9632577230
C -6.4427713997 0.6558070381 -3.4338973519
C -4.3336188027 1.8021988759 -4.1414329769
C -5.8277051653 2.8893580621 -2.4601351015
O -3.8142336955 -1.4049652350 -0.4562819378
C -0.7090122125 -2.7160055639 1.6031975784
O -1.7904197199 -2.9482559639 1.0816192705
C 0.0406986379 -3.8320150146 2.2991382614
H 7.0372272957 0.9437118646 -0.2438980604
H 6.6130023943 2.5437729511 0.3922139831
H 5.3583023514 1.4832720184 -0.2795335121
H 5.3632333653 1.4857041265 2.2902239916
H 7.0170213420 0.9445076441 2.2600476674
H 6.3819427442 -2.4155540014 1.2608052246
H 7.6048253219 -1.1381231685 1.2859391046
H 7.3434980134 -0.9808701242 3.8080529647
H 7.8254173766 -2.6077754882 3.2993064694
H 6.1342876649 -2.2814276226 3.7291533053
H 3.7314679998 0.9780185402 1.2482815915
H 1.9261887683 -2.1949734549 1.7579291435
H -0.6985492639 1.9290486377 1.0154617688
H -3.2152654403 1.5091382915 1.1311901074
H -2.3944161714 0.8556789005 -0.3249843399
H -4.7098998942 -0.4653882469 1.1706120951
H -6.0346214198 -0.0679059331 -0.8075308839
H -5.4541265559 1.4663317941 -0.1307026489
H -4.0464176350 0.0751538933 -2.2771442354
H -6.9787292321 1.1256177899 -4.2655590462
H -7.1684821874 0.4779198083 -2.6347157209
H -6.0669180003 -0.3147883393 -3.7763105426
H -3.5111545703 2.4547078344 -3.8339619037
H -4.8667503802 2.2711388663 -4.9741870546
H -3.9065246774 0.8598095636 -4.5035201061
H -6.5700517923 2.7540341838 -1.6671787060
H -6.3164043583 3.4270692984 -3.2783769561
H -5.0129112049 3.5092360190 -2.0723546027
H -3.1431177048 -1.8683035407 0.0775802618
H 0.4771999999 -3.5017496572 3.2456026221
H 0.8636504971 -4.1827996976 1.6658382314
H -0.6478096212 -4.6614882970 2.4613994402
H 1.7498728496 2.0165133280 1.0429301878
