94
CONF84
C 9.2335346950 -0.9126061723 -5.2668369802
C 8.2134904657 -1.4561168264 -4.2885078753
C 7.0554565746 -2.1949200789 -4.9842579238
C 6.0194049678 -2.6627720562 -4.0156261136
C 4.9418358469 -1.9252020626 -3.6799164450
C 3.9647202145 -2.2948067292 -2.6958938807
C 2.9401844082 -1.4820507750 -2.3255675154
C 1.9228752667 -1.8361942193 -1.3859436644
C 0.8976411241 -1.0121911010 -1.0452006247
C -0.1845817804 -1.3851250371 -0.1778229396
C -1.2067650801 -0.5645301396 0.1260040239
C -2.3550990656 -0.9426499235 0.9999847006
C -2.3449387608 -0.2449995615 2.3667201767
C -2.2439542135 1.2736121973 2.2816356946
C -2.9152171327 1.9909115302 3.4708438533
C -2.6839985901 3.5052086932 3.3328929528
C -1.1908945278 3.7810632798 3.2286044891
C -0.5449071178 2.9820825774 2.0944727240
O -0.8477200153 1.5880316478 2.2591277836
C 0.9805787566 3.0658857168 2.1425877074
C 1.6971022183 2.2783984545 1.0460544334
C 3.2029089705 2.2621700223 1.2957633399
C 3.9892090977 1.6337886140 0.1802150941
C 5.4379972594 1.8912219079 0.0625389158
O 4.5100157937 2.5214456677 -0.8352638340
C 6.3562718830 0.8883389808 -0.4912339306
C 6.5304281617 0.6605116575 -1.7965571390
C 7.4342780019 -0.4059595963 -2.2602881136
O 7.9514880004 -1.2498373101 -1.5486951100
O 7.6169060400 -0.3171191376 -3.5974703180
O 1.3855102900 2.8012959916 -0.2678650559
O -1.0698271285 3.4743285225 0.8754396988
O -3.2866966181 4.2266594722 4.4110592992
C -4.3949180199 1.7125926160 3.4724720044
O -5.1309566632 1.9176261846 2.5273006630
O -4.8278806751 1.2000378853 4.6423167613
O -3.5429761229 -0.5613640797 0.2430625902
C -4.7590093656 -1.0729938599 0.7002256539
C -5.8667795784 -0.4048795554 -0.1147769734
C -7.2080605276 -1.0318612304 0.2756615650
C -7.1384032403 -2.5584530004 0.1739914026
C -5.9643116989 -3.0978892964 0.9910191936
O -4.7524498825 -2.4862324677 0.5121855130
C -5.7932656706 -4.5960965837 0.8647062989
O -8.3423292124 -3.1367788713 0.6827510960
N -8.3633162791 -0.5609260197 -0.4957575169
O -5.6730443789 -0.5900591912 -1.5163518851
H 9.6850168513 -1.7406104948 -5.8208617852
H 10.0255825119 -0.3753849859 -4.7382807708
H 8.7585710540 -0.2334888401 -5.9816427660
H 8.6867595106 -2.1011775126 -3.5437628871
H 7.4912732921 -3.0389144106 -5.5313714237
H 6.6139518197 -1.5079256311 -5.7160882378
H 6.1931885475 -3.6126240138 -3.5099241057
H 4.7923926011 -0.9647661499 -4.1757408191
H 4.0606388003 -3.2764502591 -2.2309359435
H 2.8658809209 -0.4956114824 -2.7860908121
H 1.9665597118 -2.8343941630 -0.9488215583
H 0.8634418311 -0.0110103118 -1.4767304782
H -0.1713614978 -2.3962481980 0.2310824572
H -1.2251686862 0.4465393772 -0.2794075151
H -2.3644281446 -2.0278454668 1.1567712207
H -3.2466556579 -0.5370892174 2.9168786700
H -1.4979988047 -0.6241494779 2.9491381370
H -2.7219199676 1.6333362532 1.3602663260
H -2.4663556342 1.6379185108 4.4074494709
H -3.1985823375 3.8534075414 2.4308966543
H -0.7088989108 3.4932027602 4.1712520695
H -1.0209677056 4.8490793992 3.0630576516
H 1.2716229163 4.1220609050 2.0805241072
H 1.3102164286 2.6906942998 3.1174885733
H 1.3218371766 1.2494778984 1.0199186766
H 3.3900548027 1.6984064242 2.2186372332
H 3.5720467311 3.2837543298 1.4567655975
H 3.6143683253 0.6896692175 -0.2213308489
H 5.8709102204 2.5587339542 0.8120689447
H 6.9275322187 0.3139986515 0.2368021369
H 6.0034004195 1.2409087571 -2.5466665519
H 1.8092296715 3.6681890698 -0.3503810928
H -0.4391280166 3.2211024560 0.1759186135
H -2.8284417758 3.9812345134 5.2267090463
H -5.7883366819 1.0573151485 4.5723547887
H -4.9270666035 -0.8549754806 1.7711847170
H -5.8742338142 0.6669382204 0.1383316222
H -7.3852126802 -0.7843221351 1.3324785856
H -6.9894652615 -2.8492311338 -0.8794469318
H -6.1185828295 -2.8192277925 2.0486693879
H -4.9315787167 -4.9303227038 1.4492806525
H -6.6857246081 -5.1073985582 1.2328210733
H -5.6386074330 -4.8712746421 -0.1837572183
H -9.0535113218 -2.5648981625 0.3527254377
H -8.1301408363 -0.5861184808 -1.4846781535
H -8.5545775809 0.4102863208 -0.2718074834
H -4.7770677159 -0.2913920407 -1.7215484429
