27
CONF5
C -2.2605943856 -0.2135312440 -1.5970381847
C -3.6419866796 -0.1917793593 -1.5186861883
C -4.2336209077 0.0665699440 -0.2844995140
C -3.4782033957 0.3031147227 0.8658980843
C -2.0998939089 0.2712612156 0.7812547568
C -1.4793072810 0.0037788012 -0.4523330300
N -0.0862011392 -0.0308919819 -0.6547367591
N 0.5937807431 -0.0702579126 0.4111210451
C 1.9789976996 -0.0609425527 0.2524216226
C 2.7208496421 -0.1454366973 1.4421504363
C 4.1030865476 -0.1409974530 1.4165921970
C 4.7638092600 -0.0476930915 0.1861177090
C 4.0332049905 0.0382365311 -1.0125503610
C 2.6565279094 0.0310751671 -0.9812096725
O 6.1106664921 -0.0330765174 0.0821350108
N -5.6921202088 0.1008740390 -0.1924663285
O -6.3437671281 -0.1087848949 -1.2148882569
O -6.1998789225 0.3364507179 0.9033477879
H -1.7648550817 -0.4057317316 -2.5425551623
H -4.2540146251 -0.3667772296 -2.3940597413
H -3.9724418210 0.5126368137 1.8062306280
H -1.4948318881 0.4628614845 1.6588136019
H 2.1876631725 -0.2144022887 2.3850444547
H 4.6759528706 -0.2059328933 2.3371376799
H 4.5726866297 0.1107983957 -1.9513406503
H 2.0900172661 0.0983224803 -1.9025414202
H 6.5144746258 -0.0997442798 0.9600169541
