44
CONF117
C 5.3876308210 -0.6166326994 -1.8242846156
C 4.0225228401 -0.0604236942 -1.5975463349
N 3.6261217165 0.0783754282 -0.3218903530
C 2.3809608931 0.5355983728 -0.1575567769
N 1.5515039213 0.8548296709 -1.1664397576
C 2.0610941099 0.6964754104 -2.3858387137
N 3.2849990128 0.2389173517 -2.6719346487
O 1.3293900609 1.0149888736 -3.4475231180
C 0.0181279434 1.5924972054 -3.2196729688
N 1.9541993250 0.6968804886 1.1542859087
C 2.9522657286 0.4552223381 2.2157827075
C 0.6427096052 1.0001429615 1.5917159785
O 0.3680855341 1.0640468497 2.7806240262
N -0.2957926476 1.2023725421 0.6084565772
S -1.9560131082 1.2879516302 0.9480680553
O -2.2213237090 2.5077524137 1.7160628739
O -2.5826765966 1.1052943937 -0.3702561751
C -2.3708057113 -0.1205674700 1.9874832683
C -2.6067533449 0.1358154470 3.3345768570
C -3.0619247155 -0.8894565310 4.1557473744
C -3.3040501157 -2.1513337540 3.6224755506
C -3.0849346242 -2.3943366741 2.2711466727
C -2.5994162506 -1.3868919712 1.4357289487
C -2.3733043209 -1.7634411411 0.0051832356
O -3.2272229637 -2.2722990503 -0.6897180023
O -1.1054074976 -1.5605487056 -0.3684036117
C -0.7842140702 -1.9695623869 -1.7256898793
H 6.0832386086 -0.2419240763 -1.0707703166
H 5.3438415511 -1.7075622011 -1.7183960231
H 5.7416263375 -0.3816348261 -2.8282479172
H -0.6290549672 0.8796440381 -2.7036157135
H -0.3700250979 1.8025716124 -4.2150065446
H 0.1073809850 2.5133467406 -2.6379817143
H 2.5099010160 0.7505397498 3.1630919454
H 3.8448342072 1.0489047567 2.0168354974
H 3.2229478016 -0.6028183751 2.2466287152
H -2.4429597554 1.1303839643 3.7299122896
H -3.2383185720 -0.6941201849 5.2078565001
H -3.6705476365 -2.9507784822 4.2575327635
H -3.2779239201 -3.3755381911 1.8504330590
H -1.4039507010 -1.4197238216 -2.4374571025
H 0.2695010156 -1.7274511931 -1.8551967290
H -0.9514199427 -3.0431414910 -1.8365962410
H -0.0066865851 1.0610032261 -0.3735898189
