34
CONF53
C 1.9959833400 2.3250313253 4.8456449988
C 2.6139954166 1.2749434049 3.9552760534
O 1.5994117101 0.8894533363 2.9739944856
C 1.9654184059 -0.0323379098 2.0722542718
O 3.0563726847 -0.5681722352 2.0486333915
C 0.8612463424 -0.2764835877 1.0667299512
C 1.0013102754 -1.6403392659 0.4088261598
C -0.0367439841 -1.8538589818 -0.6517192177
O -0.3800395296 -3.0457924618 -0.9008625321
C -0.6067879966 -0.7418156539 -1.3654504980
C -1.6355376589 -1.0312807956 -2.3075833559
C -2.3984976559 -0.0420018009 -3.0513036494
C -3.8274729775 -0.3942360900 -3.4625637456
C -2.7735597678 -0.3768449948 -4.5002140959
O -1.9621974461 -2.2756440242 -2.5220338207
C -0.0858141535 0.6063220758 -1.1389165542
O -0.3770752406 1.5870105946 -1.8257751731
C 0.9235804487 0.8029745620 -0.0190858078
H 1.1183338699 1.9301351985 5.3648781006
H 1.7011264953 3.2048272213 4.2669621795
H 2.7301108758 2.6346484075 5.5949788436
H 2.9064319799 0.3810042038 4.5143563884
H 3.4870426527 1.6530168930 3.4148069720
H -0.1017983527 -0.2023466516 1.5846566321
H 1.9876673711 -1.7164589596 -0.0704872382
H 0.9273064798 -2.4601067348 1.1283840351
H -2.1787018236 0.9900139159 -2.8326409543
H -4.5281401853 0.4322259902 -3.4189294699
H -4.2010416012 -1.3568063267 -3.1328994068
H -2.4140318288 -1.3286727637 -4.8750980890
H -2.7270912814 0.4581410627 -5.1903762346
H -1.3244895526 -2.8464447964 -1.8791618167
H 1.9196157937 0.7939066437 -0.4860274153
H 0.7640677937 1.8036632941 0.3907463104
