92
CONF185
C -5.6198399840 0.9048206315 3.6825292929
C -5.6356883386 1.5106429665 2.2803128173
C -4.2587131630 1.9758447122 1.8279714066
C -4.2004301477 2.5365581402 0.4008083815
C -2.8923241101 3.2526145694 0.1553844833
C -2.2955959139 3.4371434832 -1.1838773720
O -1.7079243886 2.5168385916 -0.2303893658
C -1.5519714994 4.7018435554 -1.4107902634
C -0.2666517620 4.9389966189 -1.1476747600
C 0.7545155868 3.9817333586 -0.6269808886
O 1.3401916621 4.2474601742 0.4141516576
C 1.1568720897 2.8100797201 -1.5117330288
C 2.2062605257 1.9331795450 -0.8315034089
C 1.6559938278 1.0900936078 0.3341243029
C 0.9499914883 -0.2040221982 -0.1614663708
C -0.4086813265 -0.4496349916 0.5100268926
C -0.2922811655 -0.6120620479 2.0347487472
C -1.6514115467 -0.5489648721 2.7377335479
C -2.2659156160 0.8216950457 2.6024831624
O -1.7899339128 1.8292580762 3.0890161983
O -3.4006315098 0.7857378890 1.8802421535
O 0.3071703389 -1.8573503553 2.4178373643
C -1.1682054140 -1.5956802387 -0.1606257777
O 1.7451593335 -1.3926220033 0.0469830661
C 2.8376906536 -1.5849651697 -0.8445580568
C 3.6467470027 -2.7404617139 -0.2560368747
C 2.9414005239 -4.0946358097 -0.4506537950
C 2.5060360768 -4.2281099981 -1.9129025972
C 1.6762563738 -3.0295659262 -2.3522723921
O 2.4211436737 -1.8000665059 -2.1685687024
C 1.2996417244 -3.0844207853 -3.8179341299
N 3.8817784065 -5.1633475102 -0.0506071986
C 4.1261447807 -5.1364155045 1.3985240272
C 3.4138556056 -6.5016573128 -0.4301863964
O 4.9198442333 -2.7455816230 -0.8978085355
C 2.7608468862 0.8306444002 1.3799847523
C 2.9544118772 2.0490888083 2.2310181452
O 4.0108091449 2.6283845300 2.3883492502
C 1.6876935165 3.3722607553 -2.8455459661
C -2.8804921863 2.8174286997 -2.4289569875
C -5.3217382971 3.5533113861 0.1381521013
H -5.0118127345 -0.0036560469 3.7204828216
H -5.2117344761 1.6170724428 4.4082084057
H -6.6338356760 0.6442729780 3.9988092032
H -6.3015122553 2.3790995144 2.2722931730
H -6.0328132042 0.7919246723 1.5518614265
H -3.8608774862 2.7127731436 2.5352672422
H -4.3037507739 1.6930060672 -0.2901684694
H -2.6785702350 4.0377153469 0.8863501996
H -2.1685256827 5.5161322747 -1.7904304344
H 0.1153748953 5.9514820109 -1.2718627768
H 0.2465075772 2.2348172133 -1.7300194366
H 2.6535352621 1.2757337089 -1.5860650413
H 3.0093340129 2.5862643571 -0.4694071825
H 0.8803835914 1.6901475839 0.8286907089
H 0.7662960737 -0.1050365423 -1.2411786515
H -0.9682581485 0.4771180351 0.3386290627
H 0.3045356006 0.2221480386 2.4328478354
H -1.4859832512 -0.7220839909 3.8066831870
H -2.3244783505 -1.3204465871 2.3601399636
H 1.0208447306 -2.0255667955 1.7822164053
H -1.1764375783 -1.4527068110 -1.2462318814
H -0.7065204042 -2.5634520336 0.0530510072
H -2.2080505099 -1.6325465357 0.1753779509
H 3.4713087867 -0.6911635962 -0.8935785410
H 3.7609296600 -2.5176327264 0.8146171387
H 2.0371675178 -4.1068626234 0.1900620371
H 1.8902506845 -5.1219506719 -2.0490651997
H 3.3858258041 -4.3200687663 -2.5625154675
H 0.7671834497 -2.9751420178 -1.7379929645
H 0.7169768455 -2.2017664189 -4.0970691627
H 0.6963213441 -3.9752467610 -4.0150877595
H 2.1981789146 -3.1260878878 -4.4421055634
H 4.5931235076 -4.1957057052 1.7004668652
H 4.8134693055 -5.9459454878 1.6603190081
H 3.1962061234 -5.2670558270 1.9819705916
H 4.1208437889 -7.2419069828 -0.0447230070
H 2.4147397240 -6.7322772345 -0.0164007352
H 3.3766100733 -6.6119429858 -1.5158530422
H 5.2127961205 -3.6734517509 -0.8549613042
H 3.7129573090 0.5528573847 0.9182347138
H 2.4634393219 0.0181367081 2.0569235195
H 2.0326003953 2.4093344996 2.7399808882
H 1.9456147200 2.5441875968 -3.5116204703
H 2.5892990912 3.9706691263 -2.6754646362
H 0.9440236411 3.9988669213 -3.3444169353
H -3.5322108549 3.5379568975 -2.9334247855
H -2.0714461674 2.5542247305 -3.1182367714
H -3.4539902711 1.9173815989 -2.2036536046
H -5.3123629685 4.3489326777 0.8914181878
H -6.3040151890 3.0770896250 0.1511120437
H -5.1815187170 4.0142636423 -0.8437886291
