40
CONF1
C 1.4194308642 2.1255119632 3.5402484345
O 2.5819125548 1.8691291153 2.7168193402
C 2.6888960884 0.6118159591 2.2676887805
O 1.8977280308 -0.2735394546 2.5049384735
C 3.9605782971 0.3875867338 1.4678248062
S 4.4464002843 1.6629353244 0.2544317486
C 3.2193370495 1.4557612580 -1.0132662470
C 2.1159534008 0.6074211987 -0.9065542876
C 1.1667693941 0.4897399460 -1.9305521946
C 1.3747156336 1.2323839923 -3.0954677314
C 2.4528422167 2.0850431566 -3.2358585919
C 3.3636329842 2.1968711808 -2.1939222923
Cl 4.7190516751 3.2875798031 -2.3769120835
F 0.4846804271 1.1393039815 -4.1016868815
N 0.0729573023 -0.3658457987 -1.8284447808
C -0.7430925621 -0.2221081880 -0.8582169989
N -1.7568445008 -1.1265251671 -0.6033985584
N -2.7598388653 -0.6004990854 0.2427227264
C -2.3955580788 0.5106310002 0.9614105704
O -3.0060998944 0.9951742064 1.8848737291
S -0.8238487254 1.1398941028 0.3068075787
C -3.6289268597 -1.6159339131 0.8475946985
C -4.2723745184 -2.4433435949 -0.2583447427
C -3.1935334309 -3.0213844034 -1.1740745920
C -2.3023930490 -1.9137743649 -1.7234517041
H 0.5071645662 1.8714192159 2.9960427175
H 1.4559598484 3.1906290188 3.7648668069
H 1.4708586528 1.5316237887 4.4563528184
H 3.8996195893 -0.5980413417 1.0001452478
H 4.7966288029 0.3728618926 2.1773330052
H 1.9646225809 -0.0066365559 -0.0269843615
H 2.5724227285 2.6607505572 -4.1455173035
H -3.0308552201 -2.2556579257 1.5142694425
H -4.3643454891 -1.0753126249 1.4461598433
H -4.8673914085 -3.2432251963 0.1936666260
H -4.9542058001 -1.8074481247 -0.8360418312
H -2.5762648934 -3.7375641206 -0.6178673692
H -3.6444918756 -3.5582166965 -2.0146684088
H -2.8657042130 -1.2483035617 -2.3958044984
H -1.4463947938 -2.3107073727 -2.2704569363
