44
CONF5
C -2.3687797897 -1.3205336049 0.8513796592
C -2.2610403896 -0.3971193436 -0.3681638183
C -1.6125524892 -1.1295217841 -1.5420627039
C -0.1213303955 -1.4066122049 -1.2862141902
C 0.6597847125 -0.1388038299 -0.8953716058
C -0.0124470270 0.6086506759 0.2769359967
C -1.4595463415 0.8896539776 -0.0931248761
C -2.3564791774 1.6916702188 0.8647586470
C -3.7992539290 1.3085885707 0.4342498745
C -3.6400318698 0.2346253673 -0.6596603916
O -4.7603912895 -0.6477401582 -0.6221916730
C 0.7933366799 1.8639301198 0.5938764565
C 2.1685306626 1.4763086627 1.1264651703
C 2.8399115974 0.3914030936 0.3146889737
C 2.1354466028 -0.3895063973 -0.6158477176
C 2.8474043348 -1.3777596971 -1.3077890804
C 4.1976396190 -1.6097622016 -1.0963950480
C 4.8805595193 -0.8331880466 -0.1647144825
C 4.2010126291 0.1594731826 0.5301606689
O 6.2136047503 -1.0889789025 0.0203805432
H -1.4056401851 -1.7604056482 1.1179606561
H -3.0649475789 -2.1353576732 0.6331068940
H -2.7505726201 -0.7973245455 1.7316734765
H -2.1280042339 -2.0771992500 -1.7508465398
H -1.7081339274 -0.5053246447 -2.4430430397
H 0.0023207281 -2.1614776260 -0.5000388368
H 0.3023770277 -1.8430379563 -2.1960689364
H 0.6000400287 0.5472600439 -1.7592452925
H 0.0114983087 -0.0389994939 1.1679400401
H -1.4359017281 1.4435723035 -1.0485626653
H -2.1649186798 1.4055293645 1.9051376737
H -2.1751828009 2.7674253169 0.7917024647
H -4.3691902297 2.1651446974 0.0656986467
H -4.3700809854 0.8763337002 1.2615240132
H -3.5858212859 0.7186839196 -1.6501573883
H -4.7152081542 -1.2199395137 -1.3961428804
H 0.2719078360 2.4828297235 1.3325976572
H 0.8934045124 2.4666034371 -0.3198863803
H 2.8263249811 2.3521497174 1.1760980582
H 2.0625271103 1.1175283210 2.1606288627
H 2.3379096623 -1.9931726845 -2.0406628221
H 4.7299738402 -2.3814592146 -1.6413638562
H 4.7329742648 0.7724227665 1.2569050787
H 6.5569659856 -0.4865629494 0.6895525230
