65
CONF66
C -3.7940166486 3.3677387524 -0.7677889644
C -2.5095089831 3.6772203137 -1.5329585349
C -1.7017116795 2.4196217903 -1.8886369669
C -0.4340747362 2.7688810269 -2.6779578731
C -1.3067647125 1.6972085550 -0.6187274497
O -0.6200891767 2.1877600551 0.2586944439
O -1.7913583773 0.4408174470 -0.5794586338
C -1.4659681252 -0.3631408228 0.6003417745
C -2.4834348707 -0.0930256536 1.6958437050
C -2.1133561810 -0.8725067808 2.9663112778
C -1.6974873109 -2.2730866769 2.6295986963
C -1.4096253500 -2.7161257202 1.3905305230
C -1.4933819758 -1.8204056784 0.1662909972
C -0.3874509309 -2.1913076844 -0.8481845534
C -0.5965077084 -3.6599676372 -1.2714071031
C -0.6479073652 -4.5478185101 -0.0586921817
C -1.0056211168 -4.0931022008 1.1537430978
C 0.4245078974 -4.1515231708 -2.3008722749
C 1.0190984888 -1.8910669190 -0.2803711484
C 1.6331648901 -0.6432522388 -0.9203017912
C 2.8313225455 -0.0730817193 -0.1851680365
C 3.4644005258 1.0924634536 -0.9208034395
C 4.4796999845 1.7885258542 -0.0320861274
C 3.7512717964 2.3314045557 1.1905793577
C 2.8007606466 1.3601474632 1.8509039449
O 2.3936605356 1.5209901949 2.9849768246
O 2.3377185661 0.3089472510 1.1523148076
O 5.1973162725 2.8224545787 -0.7107968734
C -1.0200928827 -0.1636919843 3.7861932161
H -4.3596807165 4.2821113724 -0.5661194120
H -4.4373013426 2.6902480747 -1.3397682463
H -3.5782570309 2.8920690817 0.1959420567
H -2.7458344443 4.1958491705 -2.4695842865
H -1.8705564838 4.3487986943 -0.9469063397
H -2.3302133234 1.7471158451 -2.4822013104
H 0.2069525732 3.4354238263 -2.0927263970
H 0.1389257470 1.8709928092 -2.9306994078
H -0.7067370226 3.2766686172 -3.6077902543
H -0.4639716638 -0.0784568560 0.9342897548
H -2.5269388018 0.9798233705 1.9099855809
H -3.4709771646 -0.4074832792 1.3361030559
H -3.0080679363 -0.9289790235 3.6025433583
H -1.6094495653 -2.9694487979 3.4637383066
H -2.4634350675 -2.0049117838 -0.3220777546
H -0.5379637611 -1.5746926356 -1.7438261825
H -1.5832058561 -3.7029294902 -1.7617624611
H -0.3783897160 -5.5950958929 -0.1847599997
H -1.0080221280 -4.7639912485 2.0108786206
H 0.4695380683 -3.4689016892 -3.1560716301
H 1.4285882110 -4.2325473155 -1.8736584518
H 0.1424069092 -5.1429310339 -2.6698540913
H 0.9569531105 -1.7571215717 0.8053358104
H 1.6941029687 -2.7380054762 -0.4376947661
H 1.9476144497 -0.8726986567 -1.9465621884
H 0.8870414186 0.1564213556 -0.9984177810
H 3.5818422390 -0.8531274496 0.0001581785
H 2.6869010808 1.8078459791 -1.2255868250
H 3.9473174580 0.7041687114 -1.8232246657
H 5.2465102221 1.0690382888 0.2798022459
H 3.1271960147 3.1830701783 0.8812023590
H 4.4409049897 2.6976972721 1.9550445359
H 4.5560112229 3.4816489585 -1.0097049164
H -1.3624058814 0.8258559066 4.1066367057
H -0.1058933362 -0.0393345490 3.1969927472
H -0.7660703746 -0.7452696466 4.6782331364
