76
CONF11
C -0.7833003934 -1.8019812700 -1.2224645382
C -1.9704995183 -1.0140284809 -0.6927045454
C -3.2597581473 -1.4878491377 -1.3095177586
C -4.4890367722 -1.2709168781 -0.8274703067
C -5.7089497543 -1.8609649441 -1.5001053468
O -5.4472260852 -2.8494952522 -2.4831562434
C -4.8580479794 -0.4029750838 0.3544382048
C -3.8305846914 0.6505742596 0.7923000718
O -2.9464886399 0.1585039141 1.8196980884
C -4.4893723042 1.9032075488 1.4198649416
O -5.2822667695 1.8514444033 2.3451276873
C -3.9355160601 3.0972267002 0.7744648610
C -4.3128816393 4.4722701822 1.2032421941
C -3.0950248215 2.7064320763 -0.2037663303
C -3.0403156249 1.2205670975 -0.3941833382
C -1.7157507412 0.5282477298 -0.7828714247
O -1.5020177764 0.9771384851 -2.1148687795
C -0.4832387407 0.8380320298 0.1141822813
C -0.1673168179 2.3260425375 0.2690733594
C 0.7693874374 0.1522062092 -0.4646885313
O 1.7750262684 0.1182557944 0.5881766347
C 3.0494373132 0.4390827090 0.2471800162
O 3.3600318551 0.7664837317 -0.8946634883
C 3.9718564366 0.3522270873 1.3827568889
C 3.5037958259 -0.0420895444 2.6461338333
C 4.3441924333 -0.1394745323 3.7387888803
C 5.6977168481 0.1670644187 3.5758547486
C 6.1983842141 0.5604194264 2.3501777851
C 5.3588394952 0.6659043350 1.2175941904
N 5.8621642091 1.0517603208 0.0188558935
C 7.2478038982 1.3974461563 -0.2010092049
C 0.6005296008 -1.2309678862 -1.0427364621
O 1.6052754471 -1.5165560177 -2.0327094261
C 1.5581546967 -0.8548078842 -3.2057329073
C 2.7745999534 -1.1452388017 -4.0297873462
O 0.6603174912 -0.1061261533 -3.5353931423
C 0.2063356136 -2.4624439987 -0.2713558653
C 0.0186103337 -2.4092872849 1.2288925501
C 0.8027240698 -3.7812386871 -0.7241321828
H -0.9404147764 -2.3282623389 -2.1611411977
H -2.0504844496 -1.2115632060 0.3784920183
H -3.1848919787 -2.0720708020 -2.2243807866
H -6.3862919979 -2.2490690487 -0.7178795038
H -6.2618021170 -1.0651656151 -2.0178347485
H -4.9689988889 -3.5675874361 -2.0517642799
H -5.7857401690 0.1284854767 0.0900554202
H -5.1304151545 -1.0198960065 1.2220152756
H -3.4728058147 0.1295404055 2.6315673421
H -4.0441111475 4.6316008779 2.2530029229
H -3.8195521496 5.2315204695 0.5923170715
H -5.3969925703 4.6111299752 1.1361806701
H -2.5657155080 3.3782755179 -0.8713493148
H -3.6435666794 1.0240305316 -1.2928846576
H -0.7568205124 0.5015100399 -2.5276092501
H -0.6901650958 0.4277657793 1.1045585430
H -0.9085273104 2.8270911882 0.8955929509
H -0.1343866192 2.8160000219 -0.7092129121
H 0.8065863118 2.4537169312 0.7515512620
H 1.1552027617 0.7896110878 -1.2654618147
H 2.4510217884 -0.2728931237 2.7515425195
H 3.9580857605 -0.4455813142 4.7040999744
H 6.3742235622 0.0981335988 4.4225849384
H 7.2519768925 0.7930988622 2.2557866306
H 5.1941983726 1.1180657705 -0.7372949326
H 7.9216912283 0.5556718300 0.0118610582
H 7.3736709380 1.6719767400 -1.2503071665
H 7.5648739839 2.2525557193 0.4130505273
H 2.6136718988 -0.8112596688 -5.0538588632
H 3.6129172197 -0.5942673912 -3.5904663087
H 3.0238202221 -2.2080531928 -3.9977085913
H -0.7215812189 -3.1569933134 1.5361828148
H -0.3079762849 -1.4400047564 1.6028624412
H 0.9667858530 -2.6477381041 1.7218148812
H 0.1906422570 -4.6030959179 -0.3370863167
H 0.8447313083 -3.8685703367 -1.8108346331
H 1.8195504229 -3.9018041699 -0.3350635086
