42
CONF59
C 4.6751988796 -1.0255096434 -2.5293701464
C 4.8682851112 -1.5950115706 -1.2734858917
C 4.9041900527 -0.7520937418 -0.1703346112
N 4.7290041970 0.5737933533 -0.2506473809
C 4.5427240537 1.1011582542 -1.4632139082
C 4.5252703856 0.3492026327 -2.6403244267
N 4.4043124380 2.5147461176 -1.4861163415
S 3.0084787428 3.2088134842 -2.1998596772
O 3.0174956857 4.6019224198 -1.7356260104
O 3.0416479434 2.8939396748 -3.6324132103
C 1.6286600269 2.3385363009 -1.4656017207
C 1.0324674640 1.2937244834 -2.1652140105
C -0.0004592088 0.5939175307 -1.5565115244
C -0.4205263401 0.9319258095 -0.2651942643
C 0.1930155210 1.9923738312 0.4232496509
C 1.2215041683 2.6950744742 -0.1771558009
N -1.4786662820 0.1458155051 0.2442304460
N -1.7968621878 0.4021000920 1.4355512221
C -2.8532777066 -0.3588914880 1.9586554052
C -3.5653929994 -1.3317902820 1.2534892514
C -4.5996848907 -2.0309833299 1.8688330827
C -4.9293674475 -1.7500497832 3.2251135748
C -4.2102372309 -0.7716892003 3.9243135925
C -3.1907166013 -0.0889454582 3.2980775220
O -5.9106540986 -2.3873232248 3.8695373481
C -5.3665898123 -3.0572341081 1.1520720914
O -6.2864989064 -3.6975298415 1.6616291046
O -4.9868300337 -3.2451235380 -0.1167750615
H 4.6589770609 -1.6441900894 -3.4207892714
H 4.9979522745 -2.6643187972 -1.1515074989
H 5.0702920457 -1.1520530440 0.8278017786
H 4.4064068716 0.8305631003 -3.6026991908
H 4.5154555754 2.9000571081 -0.5477568161
H 1.3620864316 1.0411963913 -3.1661282847
H -0.4939347340 -0.2229618956 -2.0724944803
H -0.1441293255 2.2574481537 1.4178705781
H 1.7029905016 3.5173140815 0.3418018747
H -3.3107597390 -1.5409555507 0.2224248695
H -4.4752861028 -0.5701507279 4.9563152674
H -2.6280792346 0.6712472592 3.8309600014
H -6.3062598392 -3.0338405204 3.2309679102
H -5.5522028422 -3.9342245295 -0.5056232230
