44
CONF38
C -3.6402088782 1.0417631998 1.9582960171
N -4.0167003597 0.6836620338 0.5971875438
C -3.2644772151 1.3324188634 -0.4903363168
C -3.9357793608 0.7033505172 -1.7282475023
C -4.3866446911 -0.7023044895 -1.2344548374
C -3.9290147273 -0.7423120279 0.2377908538
C -2.4893988819 -1.2856419942 0.3712738918
C -1.5573681363 -0.5088372353 -0.5457048742
C -1.7577377383 0.9982053827 -0.4329455472
O -0.1832047481 -0.8614070375 -0.1505424442
C 0.7812653901 -0.7116534295 -1.0646747929
O 0.5885282633 -0.3702926355 -2.2195549284
C 2.1482105077 -1.0098544965 -0.4753274031
C 3.1979497317 -1.1668435632 -1.5896619610
O 3.4315546803 0.0313879647 -2.3247633841
C 2.5391121419 0.0381598881 0.5473157708
C 3.2543481589 -0.3401752723 1.6862101649
C 3.6682633044 0.6132488391 2.6129980688
C 3.3673240617 1.9590031343 2.4135798471
C 2.6515343637 2.3439966107 1.2819107607
C 2.2420166390 1.3900667229 0.3537283793
H -2.5978951207 0.8137522838 2.2358042420
H -3.7928221675 2.1177223298 2.0992568265
H -4.2940549266 0.5123256314 2.6604485108
H -3.3964728128 2.4194024051 -0.4445168396
H -4.7994413534 1.3013197219 -2.0297178042
H -3.2504292454 0.6525588471 -2.5793397249
H -3.9474479176 -1.5168113723 -1.8176411546
H -5.4737182988 -0.8001154621 -1.2900444463
H -4.5991014847 -1.3333085304 0.8723050228
H -2.4652566735 -2.3508257472 0.1157655508
H -2.1513865130 -1.1873179135 1.4090681614
H -1.6844081624 -0.8318950729 -1.5825632102
H -1.3323477540 1.3500617915 0.5144647845
H -1.2302829043 1.5120907528 -1.2434513126
H 4.1507132415 -1.4455008670 -1.1298218909
H 2.8844026884 -1.9820062077 -2.2574940591
H 3.4874806848 -1.3894818171 1.8466908928
H 4.2215845367 0.3030201863 3.4942241800
H 3.6856136618 2.7027113766 3.1374260228
H 2.4106828403 3.3902301316 1.1197278756
H 1.6836712993 1.7031507011 -0.5242821984
H 2.0737650968 -1.9771906579 0.0374703905
H 2.5898791392 0.2505082807 -2.7505544524
