50
CONF136
C 0.5230375619 0.0162739943 -2.4224373159
C -0.9690858406 -0.0859367397 -2.2167954890
C -1.6776455668 -1.4083522269 -2.3186326257
C -1.5331119943 -0.7215208584 -0.9446122608
C -0.6587872378 -1.3201099574 0.0705299169
O 0.2798021814 -2.0678413592 -0.1030303121
O -1.0563227021 -0.9145502553 1.3186669637
C -0.2429089688 -1.4270970495 2.3994817933
C -1.0627109387 -1.2838279715 3.6036919111
N -1.6705022586 -1.1754731769 4.5794170185
C 1.0662510720 -0.6771928759 2.5495663980
C 1.0757705584 0.7108836111 2.4354293551
C 2.2819965766 1.3872579363 2.5928914287
C 3.4587170027 0.6993563946 2.8835503587
C 3.4256502138 -0.6847194452 3.0045275944
C 2.2334020466 -1.3830004215 2.8299372490
O 2.3613566887 2.7624560008 2.5428083404
C 1.5187798087 3.4435773339 1.6732305053
C 1.4334850384 3.0825910355 0.3309240558
C 0.6359170943 3.8406095125 -0.5203684361
C -0.0635304214 4.9460923343 -0.0372067497
C 0.0406837861 5.2956730094 1.3070394990
C 0.8321720982 4.5434360832 2.1724826582
C -0.9394636728 -2.6408243954 -2.6340901267
C -1.4514881256 -3.8610148909 -2.8160278110
C -2.8826190729 -4.2898151749 -2.6450520991
F -3.4991755527 -4.4704615239 -3.8419310599
F -3.6047281317 -3.3824737644 -1.9560752897
F -2.9826115683 -5.4612607984 -1.9765703440
Cl -0.4275063914 -5.1817045917 -3.3548466738
C -1.7358564119 1.1215479920 -2.7111544523
H 1.0817075364 -0.8018180013 -1.9674589883
H 0.7428166851 0.0386594867 -3.4953249503
H 0.8829190496 0.9531816470 -1.9859448540
H -2.6969525542 -1.3621078454 -2.6844640471
H -2.4363205946 -0.2685752196 -0.5507523575
H -0.0444392462 -2.4938198566 2.2423378792
H 0.1616694003 1.2562726995 2.2255255831
H 4.3824231627 1.2547668442 3.0056965555
H 4.3416217154 -1.2247683367 3.2203907030
H 2.2111352178 -2.4653625010 2.9052736188
H 1.9891636650 2.2258817743 -0.0369545171
H 0.5712820654 3.5709505085 -1.5700092147
H -0.6822378126 5.5339275842 -0.7071421889
H -0.4990775173 6.1559224748 1.6902336750
H 0.9230055876 4.7991018050 3.2229466114
H 0.1308656277 -2.5507861901 -2.7872294535
H -1.4143108146 2.0202545360 -2.1745496959
H -1.5411883999 1.2714350950 -3.7785850750
H -2.8130497244 0.9993061288 -2.5693332733
