63
CONF134
C 8.3103065240 0.2761045691 -3.1932973522
C 6.9630768067 -0.2421002111 -3.6864773942
N 5.9474781532 -0.2153826499 -2.6277728084
C 5.1794179235 1.0130964443 -2.4191965626
C 4.8670268508 1.1883714973 -0.9537686858
N 4.1332078509 0.0079112887 -0.4535401970
C 4.5360149569 -1.2337058331 -0.8772502992
O 4.0305181613 -2.2951107067 -0.5292751841
C 5.7298335666 -1.2998044372 -1.8665228830
O 6.3623506268 -2.3531016007 -1.9391563384
C 3.1225440086 0.2596708600 0.5349235560
O 2.8994541143 1.4104385420 0.8993516487
N 2.4709669963 -0.8133654687 1.0194231764
C 1.3902896555 -0.6192585774 1.9651382287
C 0.7989316408 -1.9516436291 2.3766576956
C 0.6579263693 -2.2630245413 3.7292321847
C 0.0844041224 -3.4726055187 4.1137884942
C -0.3489632342 -4.3782598705 3.1487291017
C -0.2112091000 -4.0692806251 1.7964695009
C 0.3555918731 -2.8587898683 1.4097653072
C 0.2706267471 0.2347322106 1.3290951136
O 0.0156472046 0.2017226616 0.1294028449
N -0.4433803396 0.9726107686 2.2117795125
C -1.5676823259 1.7512262491 1.7956015232
C -2.8178216897 1.0720274751 1.1514653345
N -2.6561141455 1.9711863355 -0.0046970135
C -1.4985343931 2.5637382795 0.4804563456
O -0.7745068385 3.4181878455 0.0248347731
C -3.8391545678 2.5686274104 -0.5943170304
C -5.0560201786 1.8015691482 0.0448865877
S -4.4948964921 1.4232257554 1.7952093443
C -5.2813883426 0.5027866781 -0.7311990539
C -6.3387905397 2.6213153991 0.0987634287
C -3.9020623663 4.0637873233 -0.2981888484
O -4.4805195063 4.7234082251 -1.3149722436
O -3.5155002075 4.5871468321 0.7222145855
H 8.6917074010 -0.3548056511 -2.3855402675
H 8.2264677880 1.3034623856 -2.8257649289
H 9.0324491655 0.2645251469 -4.0148983910
H 6.5866496386 0.3731733211 -4.5104968876
H 7.0516909447 -1.2723404659 -4.0399586256
H 4.2596529596 0.9962435280 -3.0200421568
H 5.7879127060 1.8595853946 -2.7488514232
H 5.7873677728 1.3213204657 -0.3720912933
H 4.2319701897 2.0613036845 -0.8092294437
H 2.6892638771 -1.7317924826 0.6474344938
H 1.7643738405 -0.1003888608 2.8554513222
H 1.0016884801 -1.5589081091 4.4814809753
H -0.0177924580 -3.7086267168 5.1683581179
H -0.7924856671 -5.3225440446 3.4484353530
H -0.5500687939 -4.7705788379 1.0404461891
H 0.4476952042 -2.6169343849 0.3547407398
H -1.8684093708 2.4227031364 2.6045642153
H -2.6826650069 0.0138125215 0.9110519773
H -3.8816952414 2.4222280262 -1.6790882634
H -4.3711323215 -0.0996903738 -0.7978076856
H -5.6098809902 0.7426422575 -1.7487613056
H -6.0590051715 -0.0901340804 -0.2436774659
H -7.1377818038 2.0201261987 0.5409979376
H -6.6423155647 2.8933117023 -0.9170843236
H -6.2230105040 3.5332785319 0.6909829533
H -0.1847905397 0.9786594308 3.1876872624
H -4.5622472886 5.6619405496 -1.0693408203
