48
CONF27
Cl -3.1369357248 4.8953501468 -0.2382997934
C -3.4662344657 3.1572326705 -0.2273287027
C -4.6893553895 2.7065028892 -0.6960348400
C -4.9014782798 1.3263671802 -0.6851250928
C -3.9373606830 0.4467425994 -0.2199772466
C -2.6981493992 0.9202909978 0.2582980461
C -2.4694429215 2.3092527002 0.2375675745
N -1.7490159379 0.0265242108 0.7692989976
C -0.5215920866 0.6074675719 1.3168654664
C 0.3106560522 -0.4471575991 2.0305453448
N 0.6407698429 -1.5436974750 1.1230477701
C 1.5425697843 -2.5164159780 1.7569018426
C 2.2690992521 -3.3983967153 0.7399879102
C 3.4376492205 -2.7092191508 0.0267334063
N 3.0788919750 -1.4250258362 -0.5604266539
N 3.3900619216 -0.2517336364 0.0922086032
C 2.7054431549 0.6696188496 -0.5556454279
C 2.6265233849 2.0685838703 -0.3563274482
C 1.8009348112 2.7962866978 -1.1669014205
C 1.0340083750 2.1740151686 -2.2004016421
C 1.1226596046 0.8336688654 -2.4023964705
N 1.9584935043 0.1091634076 -1.5917572970
C 2.1739125887 -1.2788970766 -1.5733994458
O 1.6674822220 -2.1241268957 -2.3113888713
C -0.6104361044 -2.1625683046 0.6870370954
C -1.4648087312 -1.1568019976 -0.0640478405
H -5.4466658803 3.3944439391 -1.0514044151
H -5.8512693263 0.9350189620 -1.0365352612
H -4.1593424307 -0.6135165889 -0.2002837905
H -1.5278083672 2.7326952077 0.5593202787
H 0.0880639781 1.0730399751 0.5225264134
H -0.7878942225 1.3844776124 2.0407188757
H 1.2375111007 0.0255035473 2.3751286137
H -0.2405376131 -0.8085106054 2.9227670603
H 2.2848341016 -1.9566153142 2.3401485403
H 0.9912934013 -3.1561469964 2.4725174909
H 1.5642251511 -3.7888915766 -0.0003658699
H 2.6867920511 -4.2689073354 1.2587044128
H 3.8246067880 -3.3547938753 -0.7689791257
H 4.2510902260 -2.5046290152 0.7277132890
H 3.2095533713 2.5208586616 0.4374620158
H 1.7164445010 3.8680663243 -1.0239738118
H 0.3787506263 2.7643421798 -2.8285201984
H 0.5845800443 0.2744139608 -3.1588655051
H -1.1807487222 -2.5616410180 1.5506507965
H -0.3994137626 -2.9977068544 0.0114170650
H -2.3987194904 -1.6407987918 -0.3532720530
H -0.9396909248 -0.8492898636 -0.9859081719
