27
CONF6
C 3.6837997202 -0.0236835662 -1.9532668719
C 3.0809238112 -1.2687999964 -2.1127762485
C 2.2252072350 -1.7553127385 -1.1316393794
C 1.9619472208 -1.0019809207 0.0148844409
C 2.5684668728 0.2460208404 0.1680017239
C 3.4278490056 0.7311000874 -0.8124013123
C 1.0139529588 -1.5263708026 1.0515016918
O -0.3773101092 -1.2999023197 0.6453569202
C -0.8829334862 -0.0805889448 0.9421443498
O -0.3094874801 0.7808921919 1.5646836604
C -2.2449789559 0.0486530811 0.3981194795
C -3.1489483039 1.0819446984 0.5271107949
N -4.3416174763 0.9268898254 -0.1123239183
C -4.3705234815 -0.2121634519 -0.7318544837
S -2.9476029254 -1.2027322248 -0.5924583116
Cl -5.7172153120 -0.7521157071 -1.6536618900
C -2.9291587597 2.3604008114 1.3154625284
F -4.0296116152 3.1293336847 1.2920536791
F -2.6451380777 2.0956143157 2.6062406253
F -1.9150044674 3.0839112161 0.8001067263
H 4.3542845396 0.3564466782 -2.7172765823
H 3.2818250944 -1.8618738116 -2.9990915725
H 1.7565623540 -2.7282632203 -1.2529739693
H 2.3540041965 0.8385043605 1.0513760142
H 3.8963036622 1.7017493767 -0.6863559822
H 1.1743511675 -1.0556386339 2.0241170198
H 1.0800527070 -2.6120350357 1.1442970641
