38
CONF152
C 4.8150112666 1.6661192345 0.2905802728
C 3.7290260753 0.7095987079 -0.1997898106
C 2.3532770070 1.3313253028 -0.0734484064
O 1.3826037504 0.3818201078 -0.5447485402
C 0.0625326975 0.8933923988 -0.4428174848
C -0.8834035377 -0.1376441569 -1.0085699983
N -1.8527615974 -0.6937923065 -0.3988729773
C -2.1927501627 -0.3596004524 0.9142097728
C -2.9176104526 0.8066427734 1.1823468083
C -3.3481988028 1.1009853609 2.4682645816
C -3.0538148195 0.2173771526 3.4993594017
C -2.3403179856 -0.9495853605 3.2696000797
C -1.9147901705 -1.2401286648 1.9758303261
C -1.1398869160 -2.4984769721 1.7123460813
F 0.0699038816 -2.2456536947 1.1444926906
F -0.8974002657 -3.1991837346 2.8422643252
F -1.7943269748 -3.3367220523 0.8670815697
Cl -3.5935016290 0.5810126336 5.1307677350
N -0.6433672111 -0.5286558662 -2.3360974888
C -1.2857333952 -1.5580603543 -3.0170152391
C -0.7597717573 -1.5467273029 -4.2726120601
N 0.1874959794 -0.5373854531 -4.4020001173
C 0.2371562754 0.0495232842 -3.2331632206
H 4.8146224922 2.5938219568 -0.2914945271
H 4.6617777392 1.9278128107 1.3429044090
H 5.8045559633 1.2104779491 0.1973301570
H 3.9034960116 0.4435079487 -1.2490848031
H 3.7533712380 -0.2202154252 0.3806284525
H 2.1357889444 1.5882802652 0.9754833286
H 2.2835605326 2.2532480653 -0.6729336747
H -0.2086201145 1.0869649409 0.6032012154
H -0.0450772954 1.8395210791 -1.0007122888
H -3.1459397255 1.4828518416 0.3649575757
H -3.9048104347 2.0108205315 2.6623924729
H -2.1151068804 -1.6242188985 4.0859621053
H -2.0288232533 -2.1752420307 -2.5397683576
H -1.0016651680 -2.2036334487 -5.0963628018
H 0.8734979699 0.8798221517 -2.9629770492
