55
CONF14
C 0.8519927461 1.2289006881 -1.8004682715
C 1.6849309772 1.7452260944 -0.6392361052
N 3.0001386261 1.0971663657 -0.6224705488
C 2.8263731562 -0.3548001536 -0.5372740193
C 2.0001078200 -0.8638222395 -1.7079720354
N 0.6876994010 -0.2213898910 -1.7113160777
C -0.1900560515 -0.7310200940 -2.7588575707
C -1.6732850264 -0.5874853057 -2.3571110202
C -2.0119844521 -1.5803141845 -1.2922568873
C -1.9853152506 -1.4332205567 0.0464649679
C -2.1622646780 -2.6139137653 0.9170969453
C -3.1415692206 -3.5802863040 0.6609819886
C -3.2397855546 -4.7278518956 1.4363700138
C -2.3673983330 -4.9215978346 2.5048380757
C -1.4142418388 -3.9574528561 2.8057703744
C -1.3166742184 -2.8094790940 2.0190788378
S -0.0509575640 -1.6254160270 2.4148480614
C -0.8249443695 -0.1410767761 1.8419856244
C -1.7080445883 -0.1643897399 0.7463137626
C -2.3262340348 1.0323569446 0.3852045031
C -2.0021575906 2.2289163632 1.0183137170
C -1.0830287196 2.2481733394 2.0632995583
C -0.5145653406 1.0556916727 2.4879078577
C -2.6566714432 3.4853654017 0.5311163124
F -2.2991745682 3.7639220813 -0.7539789059
F -2.3305840923 4.5643699367 1.2737262304
F -4.0094375688 3.3862821265 0.5341083525
C 3.8454300042 1.6041131480 0.4627068031
C 4.4121024367 2.9742175062 0.1051852778
O 5.0780336246 2.9318686378 -1.1499449081
H 1.3379164736 1.5188482272 -2.7548635615
H -0.1311651968 1.7129878363 -1.7664109546
H 1.8128948518 2.8273941883 -0.7510550662
H 1.1405952304 1.5635311690 0.3070263305
H 3.8149168662 -0.8284171662 -0.5584303474
H 2.3238983925 -0.6484869807 0.4057287096
H 2.5553231008 -0.6792510635 -2.6507564048
H 1.8618865402 -1.9462301431 -1.6009053269
H -0.0182541066 -0.2192821243 -3.7256609429
H 0.0319259163 -1.7937905409 -2.9167806321
H -2.2937031061 -0.7744894371 -3.2418303799
H -1.8565583004 0.4438138818 -2.0534614536
H -2.1679770577 -2.5953605253 -1.6568112717
H -3.8331525681 -3.4140210834 -0.1589489877
H -4.0043001837 -5.4650667731 1.2152649751
H -2.4434550750 -5.8116315151 3.1205053412
H -0.7507270165 -4.0869082158 3.6548516820
H -3.0781068574 1.0248133583 -0.3961565106
H -0.8357279846 3.1781559518 2.5608575474
H 0.1670029063 1.0493321578 3.3322306099
H 4.6837295786 0.9078863083 0.5869886813
H 3.3015231086 1.6536723666 1.4274190720
H 3.6177262516 3.7387701720 0.1022537973
H 5.1463571928 3.2724101275 0.8618424631
H 4.5389963689 2.3382662561 -1.6960334856
