84
CONF6
C 0.7080644974 1.2184171666 0.2888313730
C -0.7511108540 0.9829283764 -0.1094570270
C -1.4608440475 0.1808131883 0.9702176483
O -2.8263066686 -0.1078400073 0.5553870414
C -3.7662296014 0.8177899275 0.8353602426
O -3.5315255382 1.8689870339 1.4054875476
C -5.1144492690 0.4041751954 0.3721879954
C -5.3193651179 -0.8246461387 -0.2602588032
C -6.6067053266 -1.1698269405 -0.6708013260
O -6.9305595451 -2.3320969136 -1.2942286329
C -5.8697829599 -3.2701670893 -1.5256085363
C -7.6785706672 -0.2909148707 -0.4435268487
O -8.9470605283 -0.6538170901 -0.8048063257
C -9.3019955374 -0.2260428259 -2.1390471303
C -7.4529869289 0.9448367914 0.1864280722
O -8.5539144510 1.7226576083 0.3478015150
C -8.3691707833 2.9984687396 0.9783279192
C -6.1682756102 1.2916382985 0.6004257624
C -0.7986703167 -1.1667820353 1.2280690099
O -1.4031462430 -1.8104587218 2.3540868289
C -2.2932384180 -2.8763875742 2.0156786405
C 0.6757766298 -0.9559409346 1.5742646084
C 1.3659427846 -2.2901338205 1.7568629283
O 1.0110070106 -3.3448920889 1.2712332802
O 2.4843507686 -2.1488108561 2.4926350501
C 3.2845281428 -3.3464062211 2.6570601708
C 1.4435238600 -0.1084964388 0.5301902556
C 1.6711409081 -0.8387040823 -0.7957384925
C 2.3919282526 0.0436034080 -1.8187841950
N 1.6788914682 1.3276700551 -2.0006422053
C 2.3994809460 2.1687093430 -2.9734093946
C 3.8043003919 2.6161286407 -2.5100249984
C 4.4937467785 1.4728994370 -1.8396097306
C 3.8377694986 0.3147986894 -1.5082437694
N 4.7196381768 -0.5592064491 -0.8899135015
C 5.9588030779 0.0335652516 -0.8101764588
C 5.8514698663 1.3279025953 -1.3983246969
C 6.9913891866 2.1347389706 -1.4369925713
C 8.1916003589 1.6663909175 -0.9095761608
C 8.2650419372 0.3817951275 -0.3354292886
O 9.4127118496 -0.1458912786 0.2021262280
C 10.5920250817 0.6621778608 0.1753186833
C 7.1475026748 -0.4516992734 -0.2783379503
C 1.4873632002 2.0456566363 -0.7314454494
H 0.7127408752 1.7840272990 1.2311606422
H -1.2614224324 1.9430495809 -0.2396506139
H -0.8135858136 0.4440931498 -1.0605703454
H -1.4992669777 0.7448205758 1.9091519488
H -4.4835815377 -1.4879688775 -0.4285501010
H -6.3369201796 -4.1245602987 -2.0154733165
H -5.1026425239 -2.8417082787 -2.1807913168
H -5.4153444609 -3.5884001199 -0.5800793918
H -9.2517234826 0.8657947671 -2.2162899395
H -10.3262070854 -0.5630280252 -2.3064454670
H -8.6335802754 -0.6847272318 -2.8764615412
H -7.6838406680 3.6267115515 0.3978889007
H -7.9897842818 2.8796518356 1.9996350140
H -9.3575848582 3.4573289124 1.0039440928
H -5.9622331534 2.2321102883 1.0932800187
H -0.8931230913 -1.8029847567 0.3373419207
H -1.7730060913 -3.6475511363 1.4323708547
H -3.1617517171 -2.5145959326 1.4513401530
H -2.6344018638 -3.3084433150 2.9595837925
H 0.7213080789 -0.4189509815 2.5301785999
H 2.7081108344 -4.1154431866 3.1765355450
H 4.1428118118 -3.0403292448 3.2536010254
H 3.6058163239 -3.7205141837 1.6818698888
H 2.4253469665 0.1266289065 0.9616612706
H 2.2510695738 -1.7550815116 -0.6385447869
H 0.7203624750 -1.1541245529 -1.2366914821
H 2.3408589684 -0.4794295811 -2.7866352324
H 1.7817360382 3.0463738122 -3.1969376519
H 2.4963284879 1.5854237103 -3.8978219413
H 3.7313167027 3.4773661092 -1.8307845197
H 4.3712157941 2.9649405700 -3.3824578587
H 4.5021813995 -1.4872747468 -0.5657880259
H 6.9509438162 3.1270286517 -1.8773749295
H 9.0670537892 2.3023957206 -0.9479521370
H 10.8878957473 0.9012003847 -0.8536292320
H 11.3718779426 0.0630678866 0.6473239757
H 10.4512094318 1.5907201927 0.7419905077
H 7.2246068245 -1.4382115027 0.1674584056
H 0.9433674729 2.9723659806 -0.9544255868
H 2.4477551041 2.3306394470 -0.2655905331
