73
CONF608
C 0.3926550802 3.2405894522 -2.1154144626
C -0.8298584593 3.1861502131 -1.2267057152
O -1.9444972952 2.8087225338 -2.0748204305
C -3.1732212650 2.6387808321 -1.3867999922
O -3.1113594863 1.6297017951 -0.3948502112
C -3.1354782648 0.2917679930 -0.9026017893
C -4.5350805402 -0.2942259235 -0.7478132599
O -5.4063529962 0.4270192768 -1.6137223245
C -4.5550563932 -1.7884249957 -1.0581633981
O -5.8754376973 -2.2462401099 -0.7490437611
C -3.4986319259 -2.4971761248 -0.2074315467
C -3.3521316387 -3.9707458111 -0.5290213835
O -2.4026368281 -4.6082375223 0.3242883997
O -2.2192393303 -1.8997130623 -0.4947653038
C -2.1537483300 -0.5462212791 -0.0882052570
O -0.8539750335 -0.0848550350 -0.3752763801
C 0.1679573862 -0.4439239773 0.4568196213
C 0.0294326479 -1.3690447864 1.4913540203
C 1.1406538501 -1.6437349806 2.2819884006
O 1.0094919065 -2.5165660535 3.2921308067
C 2.3922502886 -1.0165249360 2.0408525744
C 3.5149649699 -1.2371585086 2.9114910487
O 3.4695961380 -2.0141699412 3.8863882533
C 4.7496287977 -0.4267894893 2.6153987226
C 4.8670934871 -0.1244673372 1.1309650335
O 3.6397101027 0.5430867707 0.6767452172
C 2.4838334816 -0.1043355632 0.9598419504
C 1.3851009051 0.1856755045 0.1733946715
C 5.1382010749 -1.3149791406 0.2380619567
C 5.1970836737 -1.1050477090 -1.1458764156
C 5.4320253420 -2.1503325552 -2.0244846943
C 5.6207180645 -3.4420801014 -1.5246586140
O 5.8538405270 -4.4356704439 -2.4298905827
C 5.5711856492 -3.6711320823 -0.1507875672
C 5.3298984547 -2.6102786111 0.7186221049
C -3.5848972411 3.9346871212 -0.6876867113
O -3.9228467341 4.9297966236 -1.6605125369
C -2.4560727041 4.4233846916 0.2212502610
O -2.7794541215 5.6775929976 0.8271064384
C -1.1455143207 4.5219367993 -0.5561467244
O -0.0623813912 4.8421286932 0.3179606088
H 0.2669720502 4.0010437246 -2.8932365587
H 0.5540320104 2.2700045606 -2.5934279264
H -0.7010968177 2.4245785559 -0.4463292861
H -3.9000388091 2.3794945368 -2.1643942971
H -2.8218278612 0.2687011740 -1.9550766695
H -4.8465275442 -0.1622969835 0.3028727306
H -4.3260872038 -1.9391374957 -2.1234999644
H -6.0915528773 -2.9828327010 -1.3328814225
H -3.7362479041 -2.3723877195 0.8622018818
H -3.0734204977 -4.0814001175 -1.5884004312
H -4.3100258039 -4.4725325523 -0.3648415930
H -1.5556587467 -4.1613747444 0.1932116226
H -2.3696503680 -0.4473884874 0.9895072607
H -0.8961091790 -1.8930257095 1.6894771031
H 1.8984095014 -2.5471577041 3.7458401468
H 5.6382739131 -0.9353766372 2.9966212041
H 5.6314798619 0.6400608660 0.9667508764
H 5.0514107228 -0.1032946644 -1.5396258688
H 5.4778228955 -1.9818255314 -3.0955137860
H 5.9763295202 -5.2748652575 -1.9656154742
H 5.7199167731 -4.6741802777 0.2399625171
H 5.3031640363 -2.8193604646 1.7826819729
H -4.4918354831 3.7626891257 -0.0998561089
H -3.2367178374 4.9219898654 -2.3437606812
H -2.3206563869 3.7096955870 1.0427284209
H -3.1084048745 6.2482386825 0.1160583621
H -1.2390196800 5.2979986115 -1.3365987113
H -0.3553983905 5.5904792700 0.8565067922
H 1.2755161572 3.4877871023 -1.5210002006
H 4.6550834983 0.5212798912 3.1619679920
H -6.2857866009 0.0380260574 -1.5109677532
H 1.4639861117 0.8808762568 -0.6531275211
