50
CONF10
C 6.1111097075 3.4848714238 -0.1333032884
C 6.0515829142 2.0375150436 -0.5607061039
O 4.8563742524 1.4674622155 0.0402759358
C 4.6229060354 0.1623214359 -0.2469136812
O 5.3462946135 -0.5013089409 -0.9840128407
N 3.5279092872 -0.3211724792 0.4093910335
C 2.5337085772 0.5522891046 1.0390782305
C 1.3642920623 0.8171960019 0.0697374918
C 0.7821737611 -0.4947298148 -0.3805922532
C -0.5128678833 -0.8263698162 -0.2074954739
C -1.5063705972 0.1080237331 0.3839452661
C -2.4972964371 0.6467941588 -0.4512074635
C -2.5001172874 0.2550502652 -1.9000875506
C -2.9730433173 -1.1896756055 -2.0976521549
C -2.2030826932 -2.3031081517 -1.4147374010
C -1.0755810887 -2.1561526885 -0.5821630440
N -0.4634641270 -3.2159545035 -0.0114234211
C -0.9195048212 -4.4449558128 -0.2585270043
C -2.0168037997 -4.6937662852 -1.0746959472
C -2.6554263431 -3.6057012590 -1.6472032542
C -3.4579484698 1.5062696258 0.0808478943
C -3.4173838297 1.8146938174 1.4350466324
C -2.4487817006 1.2920070090 2.2810243011
C -1.4956140941 0.4322401571 1.7412698935
Cl -4.6348253333 2.9073645783 2.0974214136
C 1.8167292040 -1.3882850046 -1.0068573531
C 2.9781621885 -1.6089827261 -0.0183606417
H 5.2298843811 4.0314270000 -0.4814002058
H 7.0001814132 3.9515157656 -0.5672134079
H 6.1733572259 3.5697192153 0.9553952195
H 6.9235845572 1.4740100015 -0.2135129747
H 5.9814424857 1.9376170401 -1.6483615741
H 2.1560664398 0.0390064357 1.9323276820
H 3.0005817224 1.4853087465 1.3510655771
H 0.6221520580 1.4526762217 0.5572358230
H 1.7619688535 1.3601706577 -0.7993927548
H -1.4903525690 0.3723405047 -2.3109040033
H -3.1661266931 0.9123351434 -2.4664486724
H -4.0173587995 -1.2619092965 -1.7653024893
H -2.9860008413 -1.4068081366 -3.1731259229
H -0.3887721865 -5.2641657088 0.2242046134
H -2.3612809654 -5.7075188461 -1.2491320039
H -3.5189217362 -3.7560618829 -2.2907203973
H -4.2235095268 1.9342580716 -0.5582647522
H -2.4359108176 1.5455152815 3.3348850915
H -0.7311753661 0.0091704836 2.3863262895
H 1.4067341168 -2.3518429996 -1.3102201894
H 2.2247551920 -0.8886936085 -1.8972171748
H 2.6087595717 -2.1348355429 0.8701841747
H 3.7717177057 -2.2018401338 -0.4740800320
