44
CONF9
C 4.2025021097 -1.3587576179 -1.1879055534
N 3.0586601914 -1.9768785870 -0.5184678809
C 2.1260121088 -2.5236610468 -1.5101886947
C 0.9314047596 -3.1771483332 -0.8243218329
N 0.2678940485 -2.1973698898 0.0397398448
C 1.1805812288 -1.6196985268 1.0340065447
C 2.3785570171 -0.9930378720 0.3296844883
C -0.8702329502 -1.6117770750 -0.3897303872
O -1.5279854716 -1.9348716211 -1.3656053392
O -1.2716716998 -0.6089956490 0.4829556600
C -2.1857167656 0.3467522113 -0.0334397452
N -1.5659209849 1.6819911439 0.0112420081
C -2.2520938741 2.5915302724 0.8146456894
O -1.9775850116 3.7634580731 0.9950752072
C -3.3980864727 1.8216464415 1.3682876988
N -4.3345764966 2.2731180791 2.1957485929
C -5.2365241350 1.3447415730 2.5391664286
C -5.1851724826 0.0257111450 2.0662230554
N -4.2356471323 -0.4101679179 1.2239967296
C -3.3551038893 0.5228884276 0.8912565435
C -0.4108454000 1.9427228906 -0.7457541604
N -0.2192087195 1.1189186060 -1.7779209505
C 0.8697297313 1.2763014489 -2.5304022197
C 1.7997225617 2.2750018430 -2.2708479461
Cl 3.2118180345 2.4286216977 -3.2916040279
C 1.6095369707 3.1318184689 -1.1931939291
C 0.4818718786 2.9655169185 -0.4052188435
H 3.9009228020 -0.5204415078 -1.8457393285
H 4.9036126852 -0.9726980928 -0.4406894689
H 4.7207554253 -2.1048492388 -1.7993761086
H 1.7594811873 -1.7329874575 -2.1969396550
H 2.6513949670 -3.2730589241 -2.1137276513
H 0.2194794268 -3.5493699716 -1.5615985181
H 1.2696853371 -4.0115662917 -0.1979251205
H 1.5162658411 -2.4327319586 1.6897167465
H 0.6621292124 -0.8771350806 1.6380571429
H 2.0292436499 -0.1218406223 -0.2619360893
H 3.0856460627 -0.6249566195 1.0822612871
H -2.4822914777 0.0699099152 -1.0504678291
H -6.0318088856 1.6472326547 3.2155239932
H -5.9380816852 -0.6925467858 2.3802196517
H 1.0047301861 0.5898210784 -3.3626712830
H 2.3319736644 3.9071095882 -0.9640719267
H 0.3049425470 3.6017338777 0.4504145693
