65
CONF338
C 2.2801968696 4.3551667639 1.8615600244
C 2.0203020586 2.8930517227 2.2167005762
C 1.6523258622 2.0295391669 0.9890781765
C 0.3712194781 2.4923622672 0.2983184946
C 1.6291734777 0.5820416144 1.4328164973
O 2.6350041006 -0.0597892657 1.6808798498
O 0.3827260333 0.0940384736 1.5554584195
C 0.2307607114 -1.2975433901 1.9867020120
C 0.0734292683 -1.3611420464 3.4972085715
C -1.1784605827 -0.6423383805 4.0272348740
C -2.3343313817 -0.7819437183 3.0860502544
C -2.2739769824 -1.3017157071 1.8454911958
C -0.9894680970 -1.8543152806 1.2581222297
C -0.9430231022 -1.6361639071 -0.2708375554
C -2.1813434291 -2.2650314680 -0.9476423254
C -3.4398859838 -1.8368542657 -0.2501704384
C -3.4621769570 -1.3853330317 1.0134881409
C -2.1375304850 -3.8001484870 -1.0570103664
C 0.3811497739 -2.1170176572 -0.8797459880
C 0.5100025551 -1.9004634702 -2.3910269134
C 0.5070538563 -0.4415685753 -2.8133133782
C 0.5002767560 -0.2508796172 -4.3150109240
C 0.6957894725 1.2196451014 -4.6613700183
C 2.0371775126 1.6722704906 -4.1197234867
C 2.3569241840 1.2130796779 -2.7170257258
O 3.2556969031 1.7141843823 -2.0678438953
O 1.6934797073 0.1720120984 -2.1844437163
O -0.3002210345 2.0499237026 -4.0412629315
C -0.9371287110 0.8417050944 4.3600640247
H 2.6328091193 4.9037836003 2.7402724590
H 3.0456928990 4.4353175590 1.0817015288
H 1.3758574677 4.8534108918 1.5008045442
H 2.9154974696 2.4661872867 2.6827077065
H 1.2099713616 2.8259263556 2.9542733001
H 2.4853875517 2.0873745029 0.2782452825
H 0.5220121039 3.4784033764 -0.1492517867
H 0.0852188057 1.8025591392 -0.5005519972
H -0.4608051788 2.5595748130 1.0067623684
H 1.1330358165 -1.8382322393 1.6945808624
H 0.0171373973 -2.4262435102 3.7536844484
H 0.9746944479 -0.9644378864 3.9773664500
H -1.4588444837 -1.1296296388 4.9729724887
H -3.2934656839 -0.4041554758 3.4419250404
H -0.9723792085 -2.9399402189 1.4429222198
H -1.0253835506 -0.5525055724 -0.4278542279
H -2.2337064192 -1.8721299650 -1.9730431770
H -4.3691767218 -1.9173057952 -0.8112105294
H -4.4029935116 -1.0735327136 1.4641883850
H -3.0673724736 -4.1690204610 -1.5017103835
H -1.3082968408 -4.1389849687 -1.6853358450
H -2.0357521509 -4.2636099307 -0.0703438568
H 1.2159230860 -1.5990111165 -0.3979372630
H 0.5161917446 -3.1836314924 -0.6606448199
H 1.4412845413 -2.3569844785 -2.7483005797
H -0.3067648864 -2.3957160494 -2.9285438105
H -0.3498046855 0.0864019109 -2.3803867314
H 1.2957965096 -0.8449416793 -4.7827083100
H -0.4586470711 -0.6140944701 -4.7019366545
H 0.6743771914 1.3610347977 -5.7506167391
H 2.8378987695 1.2684850710 -4.7520222849
H 2.1321976402 2.7610351884 -4.1453192652
H -1.1670678023 1.7616342286 -4.3554196030
H -1.8340804283 1.2846664713 4.8055296436
H -0.6883195794 1.4063067367 3.4581264244
H -0.1132643822 0.9452341321 5.0743292885
