45
CONF23
C 3.2906105391 4.3656349423 0.2100521267
C 4.1943842295 3.1321808022 0.2096791337
C 3.5837464051 1.9198233843 -0.5005919462
C 2.3156038235 1.3810953286 0.1618114403
C 1.7881697745 0.1210550944 -0.5213544048
C 0.5221687062 -0.4578014510 0.1338207776
C 0.1183717299 -1.7823940474 -0.5374263562
C -1.0711252406 -2.4740894656 0.1249260156
C -1.4292368802 -3.7980054924 -0.5507311110
C -2.5706891830 -4.5597351836 0.1300664803
C -3.9119613765 -3.8265914476 0.0864128206
C -0.6160415566 0.5410593763 0.1273043430
C -1.1477215169 1.0156753696 -1.0777199276
C -2.1956146332 1.9317160999 -1.0860101027
C -2.7347413953 2.3939281523 0.1143144704
C -2.2150958467 1.9303414757 1.3199031887
C -1.1653989707 1.0126932029 1.3219784181
H 2.9992657328 4.6332143595 -0.8123141608
H 3.8013658026 5.2278328090 0.6506766678
H 2.3744331478 4.1958783605 0.7841360860
H 5.1447249311 3.3843955112 -0.2772453149
H 4.4401282401 2.8563280345 1.2440736118
H 3.3587986549 2.1871613687 -1.5431212395
H 4.3312134354 1.1159382893 -0.5407542022
H 2.5214693708 1.1619721305 1.2198638763
H 1.5327423326 2.1491845878 0.1510296742
H 2.5668937052 -0.6534785657 -0.5090401149
H 1.5800083505 0.3363448459 -1.5787584404
H 0.7594607231 -0.6754001080 1.1850714656
H -0.1083419499 -1.5955245424 -1.5964684865
H 0.9864751365 -2.4552630645 -0.5202943945
H -0.8418541265 -2.6563541010 1.1851468430
H -1.9350415039 -1.7986322511 0.1065942913
H -0.5359474292 -4.4368683055 -0.5730183723
H -1.6989660125 -3.6053103181 -1.5991369664
H -2.2958261700 -4.7626014886 1.1739840716
H -2.6815985296 -5.5372614051 -0.3557417784
H -4.1870916358 -3.5837466598 -0.9465793503
H -3.8807334739 -2.8898949852 0.6516896362
H -4.7114213061 -4.4421297161 0.5111781618
H -0.7391941631 0.6655069862 -2.0217731130
H -2.5936887427 2.2868409331 -2.0321999361
H -3.5522015040 3.1083814084 0.1080405768
H -2.6263181436 2.2825171274 2.2615174053
H -0.7641824909 0.6543837085 2.2668829393
