21
CONF6
C -3.5177396067 0.7385352240 -0.7695841746
C -2.1757972082 1.3288509674 -0.4252406116
O -2.0441633022 2.5364700097 -0.2584842201
C -1.0037462864 0.4110024612 -0.2906567618
C -1.1241316767 -0.9767028737 -0.4573389945
C -0.0001499266 -1.7799101250 -0.3183891191
C 1.2460485723 -1.2320073903 -0.0174878748
C 1.3639341758 0.1531146913 0.1480424800
C 0.2394468928 0.9672154783 0.0112835245
O 2.5272742649 0.7956476401 0.4425520415
C 3.7102407876 -0.0040559437 0.5880255614
H -3.8250144889 0.0178002791 -0.0040921368
H -4.2574951007 1.5360416436 -0.8400331579
H -3.4667288550 0.1960365139 -1.7195906663
H -2.0803086239 -1.4287604060 -0.6915021000
H -0.0852360932 -2.8545514560 -0.4453851619
H 2.1045639591 -1.8844198151 0.0837117645
H 0.3351002893 2.0398350645 0.1408235487
H 3.6015253449 -0.7197926937 1.4110225002
H 4.5127904483 0.6976136625 0.8158506896
H 3.9395860260 -0.5379631279 -0.3413374311
