43
CONF28
C 3.6604750467 -3.1898229235 -2.4305225678
O 4.3431069146 -2.6455420919 -1.3086960002
C 3.8441180901 -1.4950989647 -0.7661396868
C 2.7094370388 -0.8411095392 -1.2404855246
C 2.3446699919 0.3174558942 -0.5553233238
C 3.0631777316 0.8257714484 0.5521752164
C 4.2004256923 0.1476961596 0.9989859472
C 4.5768447353 -1.0042493013 0.3374307570
N 2.4680313919 1.9855917537 1.0273433963
C 1.4366775962 2.1448651729 0.2468024865
N 1.3065731451 1.2018733947 -0.7387207573
S 0.1847633408 3.4391485553 0.3471177926
O -0.6685828070 3.2099675097 -0.8949728024
C -0.7480655913 2.6709312412 1.8216484495
C -1.2912161645 1.3384102185 1.4412632388
N -0.4882115175 0.3003162711 1.7110561317
C -0.8679293834 -0.9114523022 1.3130237951
C -2.0358057046 -1.1691431998 0.5972733648
C -2.4155612744 -2.5516620521 0.1607914356
C -2.8550504630 -0.0698534351 0.3257117159
O -4.0326970295 -0.2884354932 -0.3549456317
C -3.9559331179 0.0710710819 -1.7426815688
C -2.5192899817 1.2143296049 0.7666299930
C -3.4535997320 2.3736974473 0.5631162341
H 2.6270928039 -3.4622459662 -2.1759227530
H 3.6560367192 -2.4871282350 -3.2747528577
H 4.2121948052 -4.0881559034 -2.7107095469
H 2.1369450189 -1.2014000757 -2.0851916245
H 4.7652132595 0.5196652585 1.8464248077
H 5.4494198828 -1.5672875668 0.6491246958
H 0.5424568780 1.1831793751 -1.3978516100
H 0.0011799867 2.5945033777 2.6137865235
H -1.5063756005 3.4180742272 2.0664204949
H -0.1983260476 -1.7338204697 1.5659668135
H -1.6702740199 -3.2772117643 0.4953998793
H -2.4982419877 -2.6222640072 -0.9288225392
H -3.3900558454 -2.8359330443 0.5691152105
H -3.2232718839 -0.5580470424 -2.2653215476
H -4.9492021679 -0.0990946125 -2.1621839101
H -3.6750790043 1.1239435047 -1.8678161869
H -4.4345807383 2.0211587153 0.2407645281
H -3.5917593360 2.9239015971 1.4993662339
H -3.0597319675 3.0734067632 -0.1799514044
