47
CONF62
C -1.9627486131 1.7293651182 -3.4651751587
C -2.2079088428 0.2390254283 -3.4148365812
C -3.0841835774 -0.2667839026 -4.5403104602
C -1.1495436401 -0.6962758788 -2.9065468183
C 0.1816421781 -0.2207518220 -2.4979127163
C 1.1430195361 -0.9968824324 -2.0024906016
Br 2.8673831405 -0.3107821926 -1.5771094359
Br 0.9053953547 -2.8474839153 -1.6366029465
C -2.4219133323 -0.4600342240 -2.0672424105
C -2.4654593972 0.2542930497 -0.7833539946
O -3.4118194400 0.2319753861 -0.0225988088
O -1.3215155883 0.9476867645 -0.5122515113
C -1.2891360187 1.6601546123 0.7531454262
C -2.0515589379 2.9047794338 0.6189396058
N -2.6543702498 3.8839078091 0.5136006965
C 0.1622912595 1.8887393445 1.0932531578
C 0.8800835578 2.9428676604 0.5314049943
C 2.2323508926 3.0795599856 0.8330447262
C 2.8667945218 2.1710266785 1.6715063127
C 2.1376809683 1.1155199694 2.2171932434
O 2.8144049233 0.2854977249 3.0805012980
C 2.3513574696 -1.0107781222 3.2780878558
C 2.1354943861 -1.8674194328 2.2021066488
C 1.7452209214 -3.1787399915 2.4541354100
C 1.5832705182 -3.6291177875 3.7639663717
C 1.8131229308 -2.7595920233 4.8274322962
C 2.1956569039 -1.4409852346 4.5898637836
C 0.7804324533 0.9707276305 1.9403300690
H -1.3696642446 2.1030001580 -2.6298770043
H -2.9221679394 2.2568893617 -3.4606239396
H -1.4443402139 1.9811262122 -4.3967102120
H -4.0635283148 0.2221211467 -4.5094845021
H -3.2327607791 -1.3481663925 -4.4775631559
H -2.6173414253 -0.0369777864 -5.5043105319
H -1.1497703324 -1.6907448320 -3.3467712417
H 0.4268147565 0.8288413011 -2.6289856216
H -3.1457810156 -1.2682188161 -2.0853238523
H -1.7782282036 1.0513618728 1.5213849310
H 0.3909352990 3.6501485891 -0.1308118029
H 2.8012697888 3.8985484691 0.4055021501
H 3.9205811870 2.2667723677 1.9107257292
H 2.2726303514 -1.5102088360 1.1864424340
H 1.5761531969 -3.8524049709 1.6198181148
H 1.2825072061 -4.6542131100 3.9535354140
H 1.6910131648 -3.1035968285 5.8496420398
H 2.3760075672 -0.7484096489 5.4052821623
H 0.2102253711 0.1574313882 2.3760475427
