38
CONF14
O 1.8107467223 -2.2114374336 1.2519960808
P 1.0936557976 -1.2292299400 0.4244451549
O 0.7993155634 -1.5984214754 -1.1135106073
C 0.0797367360 -2.7208626119 -1.5221233917
C -0.1106151570 -3.8408665653 -0.7203863163
C -0.8551601927 -4.9023801792 -1.2305067297
C -1.3894583863 -4.8500444443 -2.5132880174
C -1.1774057908 -3.7208836432 -3.3008044660
C -0.4440067190 -2.6487125475 -2.8081866648
O 1.8175310979 0.1692154322 0.0957812149
C 2.2454484852 1.0704392325 1.0702467738
C 2.4003403747 2.3816845890 0.6347952326
C 2.8251703699 3.3480495522 1.5379915891
C 3.0860404301 3.0073449136 2.8631484316
C 2.9267762506 1.6893543307 3.2770785498
C 2.5094208142 0.7037208199 2.3851023645
O -0.3293853137 -0.8619736720 1.0891220746
C -1.2059265266 0.0687245966 0.5101271183
C -2.1530130443 -0.3723777746 -0.4030062146
C -3.0490585571 0.5498867621 -0.9347710114
C -2.9951523763 1.8868284694 -0.5509545059
C -2.0455680134 2.3038771897 0.3776992976
C -1.1426708295 1.3936466996 0.9181683248
H 0.3222576194 -3.8903950151 0.2722223020
H -1.0090431877 -5.7804863719 -0.6119184954
H -1.9646696652 -5.6846153583 -2.8991373722
H -1.5869421501 -3.6699582046 -4.3043798633
H -0.2745368146 -1.7545343970 -3.3973979800
H 2.9488034942 4.3726073741 1.2025238486
H 3.4150353773 3.7642824743 3.5667014505
H 3.1346305389 1.4126894227 4.3054914611
H 2.4031339484 -0.3272380690 2.7032690882
H -2.1856088511 -1.4190004611 -0.6847280267
H -3.7942257480 0.2169740770 -1.6498448535
H -3.6966565478 2.6009253909 -0.9688850421
H -2.0052232831 3.3426518338 0.6886686768
H -0.3997037782 1.6981624943 1.6469918698
H 2.1795005506 2.6243354289 -0.3985405297
