30
CONF1
N 5.4509124102 -0.6108566869 0.9765949091
C 4.1538711193 -0.3128145373 0.6988513327
N 3.8136476444 0.9922918602 0.8614383756
C 2.5389869972 1.3115270156 0.6461647798
N 2.1500476879 2.5891072708 0.7783037542
C 1.5861471733 0.3081537035 0.2650371749
N 0.2894643170 0.6191540136 0.0867779333
C -0.5508596808 -0.3383693770 -0.2540304058
C -0.0466327569 -1.6765112447 -0.4883790430
N -0.8706374362 -2.6593656585 -0.9263195593
N 1.2312022166 -1.9934841048 -0.2902049057
C 2.0712361216 -1.0124643719 0.1091847315
N 3.3652213418 -1.3317209105 0.3301715937
C -1.9740016389 0.0250662411 -0.4243590528
C -2.3040712793 1.1992095945 -1.1156090157
C -3.6318296916 1.5830381851 -1.2628312004
C -4.6516536657 0.8049737455 -0.7165297966
C -4.3333272966 -0.3568765675 -0.0172636108
C -3.0054353039 -0.7479891679 0.1270428586
H 5.8028375110 -1.5101711373 0.6913900418
H 6.1076159657 0.1483647649 1.0554011381
H 1.1776603148 2.8273516607 0.6714997331
H 2.8016987822 3.2827556131 1.1069025044
H -1.7704852713 -2.4228994806 -1.3119027536
H -0.4420468583 -3.5131931876 -1.2501264027
H -1.5087623198 1.8015853474 -1.5427898679
H -3.8726623371 2.4895493020 -1.8095759588
H -5.6884356471 1.1045364945 -0.8328280816
H -5.1203186266 -0.9591661154 0.4258222052
H -2.7693893904 -1.6407821693 0.6978250829
