30
CONF4
N 5.4474780101 -0.5661687863 1.0143222604
C 4.1526378530 -0.2832604610 0.7098931600
N 3.8354837235 1.0380953768 0.7115358912
C 2.5653599930 1.3484708859 0.4652470127
N 2.1968332886 2.6396953367 0.4397982076
C 1.5938323083 0.3224406190 0.2151049441
N 0.3023416804 0.6324543743 0.0042354685
C -0.5564397215 -0.3458814277 -0.2079827819
C -0.0766024011 -1.7111199399 -0.2708730790
N -0.9235988600 -2.7279401237 -0.5710464479
N 1.1961707435 -2.0242491024 -0.0433912770
C 2.0561147975 -1.0160770447 0.2241564580
N 3.3458691054 -1.3267045132 0.4761241100
C -1.9742761854 0.0174159021 -0.4182030834
C -3.0155059027 -0.6611279884 0.2306227360
C -4.3374596693 -0.2685394441 0.0428375625
C -4.6403871454 0.8005188482 -0.7969784366
C -3.6108525562 1.4848103576 -1.4414588072
C -2.2890088873 1.0994623035 -1.2520202693
H 5.7808405510 -1.5005128126 0.8420496137
H 6.1161820510 0.1860858573 0.9933562729
H 1.2245807738 2.8749902653 0.3266862725
H 2.8583524058 3.3543230643 0.6946172610
H -0.5092377224 -3.6208077129 -0.7914752401
H -1.8184284750 -2.5225847238 -0.9851209370
H -2.7902719064 -1.4776871604 0.9096305755
H -5.1318045312 -0.7953834796 0.5622653497
H -5.6725546705 1.1013388104 -0.9460213134
H -3.8395235041 2.3191409116 -2.0973952840
H -1.4861247442 1.6288018977 -1.7548577002
