44
CONF1
C -1.9527242203 -0.8787323990 2.9874550198
C -1.6335035151 0.5526945949 2.5795570384
N -1.7530505751 0.7571845527 1.1147522347
C -2.9481873355 1.2039621695 0.6674457650
C -3.2649005791 1.4140378367 -0.6442523950
C -2.2922212735 1.1396037317 -1.6658195073
O -2.5118624398 1.3096981042 -2.8851223146
C -1.0064188744 0.6315389635 -1.1869883414
C -0.0190669704 0.3428684292 -2.1378296365
C 1.2032991049 -0.1090756272 -1.7368558519
C 1.5324725138 -0.3369902420 -0.3798583867
C 0.5122987996 -0.0771960649 0.5420048418
C -0.7480491680 0.4443788433 0.1933197137
F 0.7811188801 -0.4022711988 1.8336182349
N 2.8028154755 -0.7532406546 -0.0308889851
C 3.4336210150 -0.3453944540 1.2221806208
C 4.9450841770 -0.2456811371 0.9900492123
N 5.5392470185 -1.4669831622 0.4451994227
C 4.8475335716 -1.9117831441 -0.7727949287
C 3.3315973725 -2.0100350140 -0.5713179409
C 5.4215991005 -3.2414352369 -1.2371006061
F 2.1688085472 -0.3136504301 -2.6564512114
C -4.6343106142 1.9309208434 -0.9469366198
O -5.4490264482 2.1591893128 -0.0770888081
O -4.8904406733 2.1204322677 -2.2433127319
H -1.2712857587 -1.5905161055 2.5167774574
H -1.8572937425 -0.9811527997 4.0723700391
H -2.9778907725 -1.1384435315 2.7070902282
H -0.6408464816 0.8585022308 2.9050721327
H -2.3476123848 1.2428530967 3.0360945475
H -3.6991414859 1.4157959924 1.4228627604
H -0.2374310369 0.5248683921 -3.1836071350
H 3.2296422967 -1.0639357004 2.0351641354
H 3.0374782277 0.6295980458 1.5221229418
H 5.4423028361 0.0024806576 1.9351797206
H 5.1420073271 0.5725424597 0.2847530019
H 5.4853104463 -2.2081315681 1.1410457800
H 5.0285600695 -1.1449029334 -1.5404889784
H 3.1152370546 -2.8357523899 0.1342247423
H 2.8326222124 -2.2407338635 -1.5151580989
H 6.5002838617 -3.1549276519 -1.3884270562
H 4.9598076087 -3.5593096438 -2.1765717585
H 5.2422530061 -4.0260579345 -0.4919084645
H -4.0690986923 1.8631796996 -2.7552826827
