38
CONF13
C -1.0397097900 1.7567897347 -1.4173557795
C -1.3937079262 0.4932695936 -0.6303158549
C -2.2975635709 -0.3981737428 -1.4638262769
C -3.3656388017 -1.2581560228 -0.8180826502
C -3.7480123322 -0.0235044456 -1.5886701539
C -0.1477509274 -0.2728961725 -0.0698014770
C 0.7997820513 -0.6907794879 -1.2208261653
N 1.9217247067 -1.4947736065 -0.7560633733
C 1.9290765537 -2.7954560891 -0.4052226191
N 3.1408948844 -3.1572251963 0.0042330567
C 3.8534707592 -2.0022885445 -0.1197251869
N 3.1604377628 -0.9674141092 -0.5777445190
C 0.5473242441 0.5746302805 0.9871412790
C 0.1582996181 0.4626120074 2.3253439267
C 0.7278867784 1.2587966861 3.3143274731
C 1.6975518254 2.1835287045 2.9519908263
C 2.1030606870 2.3283245820 1.6325382731
C 1.5229086743 1.5202462675 0.6594554709
Cl 2.4310948703 3.1962375848 4.1947019155
O -0.5891534170 -1.4641053856 0.5906304684
H -0.5229042190 1.5160446465 -2.3521302182
H -0.4119963985 2.4389842448 -0.8386457084
H -1.9613891057 2.2848545423 -1.6775069267
H -1.9602046594 0.7889499098 0.2644534633
H -1.8517344130 -0.8003529183 -2.3711444449
H -3.4655833965 -1.2120612588 0.2626908208
H -3.5797337523 -2.2258220491 -1.2606609140
H -4.0863583545 0.8353784669 -1.0162532736
H -4.2243597556 -0.1504310749 -2.5548844921
H 0.2334183774 -1.2953218677 -1.9345526746
H 1.2109569818 0.1654577494 -1.7559259522
H 1.0527170168 -3.4247882968 -0.4730702078
H 4.9053621274 -1.9188077122 0.1238370686
H -0.6004185160 -0.2583376682 2.6040499730
H 0.4187943896 1.1579229584 4.3486609817
H 2.8609740611 3.0549500586 1.3626624956
H 1.8562613173 1.6437117838 -0.3635983895
H -1.2857785628 -1.8499938668 0.0392895591
