29
CONF53
C -1.3105167468 1.4587511590 -3.8871801510
C -0.2500603956 1.3027313006 -2.8271899220
O -0.9353692347 1.2774505018 -1.5253067600
P -0.1031037328 1.2445678699 -0.1683254507
S 1.2680184989 2.5726306905 0.1339249472
O -1.2333352309 1.2256234721 0.9414779255
C -2.2969428638 0.2013060691 0.9423670381
C -2.9840862953 0.2806433511 2.2815530760
O 0.4709754867 -0.3107730984 -0.2884149603
C 1.3493216344 -0.8422210458 0.6025935807
N 1.1828622936 -0.5981857335 1.8901889436
C 2.0007660645 -1.1359257827 2.7731576001
C 3.0493517261 -1.9816972141 2.4053267437
C 3.2309403081 -2.2491163725 1.0524353202
C 2.3734843159 -1.6692914902 0.1313324677
Cl 2.5701855835 -1.9614146592 -1.5685946185
Cl 4.1171007869 -2.6935758795 3.5730498823
Cl 1.7090552827 -0.7468932137 4.4489777048
H -0.8291987410 1.4767241553 -4.8694689293
H -2.0144111698 0.6226070178 -3.8613239785
H -1.8596628211 2.3943654172 -3.7524884973
H 0.4532098192 2.1415362739 -2.8245316757
H 0.3029098708 0.3643549120 -2.9364046926
H -1.8341361546 -0.7777557823 0.7835690175
H -2.9751524920 0.4246948033 0.1142333745
H -3.4194540627 1.2710213163 2.4383082241
H -3.7879385871 -0.4610221842 2.3115645303
H -2.2809771938 0.0649152255 3.0905254497
H 4.0361643579 -2.8960513706 0.7247463193
