35
CONF6
C 1.0375453835 -2.9745527679 -1.4322205250
C 0.1114051621 -1.9145771991 -0.9155156139
C -1.2401415167 -2.0976299327 -0.6063496126
N -2.0282908561 -1.1063924397 -0.1677694124
C -1.4659674086 0.1055387631 -0.0170788620
N -0.1683638628 0.3919253079 -0.2580923278
C 0.5643887693 -0.6086610093 -0.7041472782
O 1.8814761433 -0.3645846196 -0.9597821779
C 2.2777266459 0.9992707793 -0.8751797309
O 2.2590510994 1.6989365082 -1.8562205107
N 2.7720348182 1.3181463337 0.3456542628
C 3.1384102658 2.7091421931 0.5814195925
C 2.5694965442 0.5015097104 1.5357425145
N -2.2572464163 1.1292515537 0.4221769980
C -3.6575368728 0.9326739036 0.7486987690
C -1.7793089579 2.4976241382 0.4989257892
C -1.9031060891 -3.4380659675 -0.7601690969
H 1.8744724260 -3.1422439938 -0.7448009844
H 0.5218034252 -3.9252924434 -1.5723700422
H 1.4750486552 -2.6788380096 -2.3917735556
H 3.3611221600 3.1891328464 -0.3712035850
H 4.0211265487 2.7484240613 1.2279075165
H 2.3189318471 3.2536749831 1.0717410670
H 2.5388606868 -0.5553203166 1.2734992322
H 3.4075387368 0.6660513049 2.2204451780
H 1.6351628608 0.7697447510 2.0480170805
H -3.8776339593 -0.1315354509 0.8125394320
H -4.3069970573 1.3839612775 -0.0156568609
H -3.8807319198 1.4110874268 1.7110562953
H -1.7305202522 2.8382499403 1.5434118576
H -0.7885068464 2.5743873806 0.0534150974
H -2.4670105688 3.1609723130 -0.0422200386
H -1.8700706191 -3.7756655935 -1.8016786355
H -1.3996675248 -4.2001932652 -0.1560321063
H -2.9445023499 -3.3661522557 -0.4463899165
