78
CONF611
C -0.6804380789 -0.1768995817 -0.8884842987
C 0.3813472778 0.1408293303 -1.9312687016
O 0.0071501673 -0.7079146057 -3.0720236265
C -0.7406553996 -1.7620633658 -2.6518832863
O -1.0931797356 -2.6294474132 -3.4164580292
C -0.9483019348 -1.6484116047 -1.1611517630
C -2.2652148751 -2.1081280532 -0.5312237292
C -3.4997538311 -1.5411856964 -1.2248882226
C -4.0452935171 -2.2279367644 -2.3115749589
C -5.1489164347 -1.6989400675 -2.9767009308
O -5.7741083003 -2.2698549532 -4.0520326343
C -5.2181041960 -3.4861291547 -4.5685111996
C -5.7241916022 -0.4904502642 -2.5666094922
O -6.8101191152 0.0350543508 -3.2078392838
C -5.1839672945 0.1863028655 -1.4681099379
O -5.8156352757 1.3474681061 -1.1289625803
C -5.2918147613 2.0713199522 -0.0098486003
C -4.0772232436 -0.3425824612 -0.8012608637
C -2.2224465949 -1.7248602973 0.9420246702
C -3.1141837488 -2.4018768538 1.8004593754
C -3.1428706066 -2.0307779527 3.1209549180
C -2.3305953823 -1.0140630737 3.6136637916
O -2.5636636336 -0.8336374788 4.9514514450
C -3.5547409401 -1.8164174347 5.3229187474
O -3.9219552334 -2.5369732832 4.1248989177
C -1.4588706846 -0.3349115720 2.8026656301
C -1.4033707125 -0.7007154093 1.4383392808
C -0.3841777920 0.0321999194 0.5837964996
O 0.9369826309 -0.4952975270 0.9064438120
C 1.8381391846 0.4425656491 1.3892334015
O 2.2603316222 1.2696781652 0.2912949086
C 3.1775603739 2.2666428038 0.7306741323
C 3.5283637200 3.1809047635 -0.4284213886
O 4.5108110238 4.1272437272 0.0332253995
C 5.6787431862 3.5205224680 0.5722531094
O 5.3891737007 2.6111753785 1.6241674792
C 4.4600315405 1.5957261665 1.2171633536
C 4.1406476961 0.6914946940 2.3890450211
O 5.2730811926 -0.0138480897 2.8979692988
C 3.0397890437 -0.2967571420 1.9741361818
O 2.5876595109 -1.0413955685 3.0979275487
C 6.5333867638 2.8771423678 -0.4917699059
C 7.3974227053 1.8220546585 -0.3654611043
C 8.1292082440 1.5537488981 -1.5542994241
C 7.8245774844 2.4153162493 -2.5719872000
S 6.6277149016 3.5707423092 -2.0861523950
H -1.5883827815 0.3920803174 -1.1269857770
H 1.3832261807 -0.1515237253 -1.6092926262
H 0.3813862416 1.1727592588 -2.2839507355
H -0.1321993116 -2.2407081227 -0.7146070309
H -2.3209425034 -3.2005670158 -0.6007199538
H -3.5983580802 -3.1590820411 -2.6341297506
H -4.1821218576 -3.3330791152 -4.8920532466
H -5.8374054026 -3.7547174010 -5.4244678744
H -5.2588034994 -4.2830495584 -3.8173138498
H -7.0415097393 -0.5681010131 -3.9300027471
H -5.9226066742 2.9551015494 0.0903081676
H -5.3467835676 1.4735181412 0.9079583670
H -4.2539390289 2.3776423200 -0.1886148283
H -3.6733043323 0.1648569577 0.0653903234
H -3.7610226809 -3.1850895276 1.4186185749
H -4.4378649081 -1.3072415193 5.7220966488
H -3.1187331430 -2.5152258277 6.0452986486
H -0.8319976217 0.4595985050 3.1933405969
H -0.3979040579 1.1007838530 0.8307458295
H 1.3797403060 1.0874788904 2.1615884555
H 2.7422122265 2.8610711252 1.5510552554
H 2.6692738252 3.7686724819 -0.7595762660
H 3.9110560845 2.5866917167 -1.2708416122
H 6.2201396267 4.3438089055 1.0505677111
H 4.8822696229 1.0019702167 0.3900964541
H 3.7753413751 1.3000997881 3.2264555141
H 5.6659591915 -0.5173860840 2.1703694002
H 3.4348013972 -0.9655803266 1.1897580848
H 3.3770732132 -1.3620435799 3.5566242168
H 7.5008932150 1.2586511416 0.5546941766
H 8.8517990481 0.7518995173 -1.6514622090
H 8.2203788127 2.4375250158 -3.5787313841
