25
CONF3
C -0.0835982060 -1.2381932665 0.8411694542
C 1.1921437143 -0.7368942897 0.1973876300
C 1.5380698846 -1.1346037399 -1.0975977382
C 2.6863955165 -0.6401564960 -1.7111228345
C 3.5074853250 0.2620834247 -1.0366773001
C 3.1726970127 0.6623370200 0.2553336536
C 2.0231462017 0.1657695728 0.8665257555
C -1.2671134088 -0.3732962524 0.4617562137
C -1.5772025431 0.7718584550 1.2012481424
C -2.6369050277 1.5948873526 0.8275354204
C -3.4030191951 1.2841681202 -0.2945840952
C -3.1032526260 0.1435425698 -1.0367370472
C -2.0429690101 -0.6781112929 -0.6600645746
H 0.0345125185 -1.2370315737 1.9293867714
H -0.2707853641 -2.2686043077 0.5225987675
H 0.9025373435 -1.8398860772 -1.6269355573
H 2.9426807791 -0.9630477465 -2.7158470510
H 4.4042445752 0.6461367195 -1.5129850921
H 3.8100371409 1.3596018145 0.7910914632
H 1.7691855134 0.4784836144 1.8760245950
H -0.9851366581 1.0179023181 2.0790713591
H -2.8670959149 2.4780564195 1.4160988827
H -4.2307956613 1.9236292829 -0.5850753960
H -3.6988509254 -0.1101546179 -1.9086664804
H -1.8164108737 -1.5684769230 -1.2407978474
