38
CONF29
C -6.5017810739 0.0587596810 1.7327243052
C -5.1468141309 0.4496735515 1.1595124607
C -5.0423040823 -0.0483272978 -0.2821533629
O -4.5700049912 -1.1123350785 -0.6140893861
O -5.5939978040 0.8408626756 -1.1189288638
C -5.6361322597 0.4453875943 -2.5163132745
O -4.1566313388 -0.1752660082 1.9730507895
C -2.8432541892 0.1488559490 1.7616400492
C -1.9264177409 -0.5238693810 2.5768877279
C -0.5698832144 -0.2660987334 2.4590188300
C -0.1385605482 0.6614518403 1.5198086399
C -1.0296359236 1.3371601203 0.7079223741
C -2.3961870129 1.0834000629 0.8255740014
O 1.2269227386 0.9884592756 1.4475520462
C 2.0364942543 0.1842674804 0.7266263234
C 3.4107897470 0.4969254098 0.7142135887
C 4.2663934828 -0.2999289175 -0.0122921972
C 3.7315678333 -1.3884456427 -0.7091568469
C 2.3669245418 -1.6213562466 -0.6450263972
N 1.5389625032 -0.8434925511 0.0623414322
C 4.6483461530 -2.2655220167 -1.4998082762
F 3.9961884144 -3.2774475409 -2.1097593438
F 5.6111070600 -2.8220491565 -0.7178122221
F 5.3027669076 -1.5701291528 -2.4673687628
Cl 4.0112819820 1.8682806690 1.6050248698
H -6.5735722390 0.4083299718 2.7653341149
H -6.6211267133 -1.0279529400 1.7109365790
H -7.3003711213 0.5196845454 1.1468672446
H -5.0287924411 1.5404326538 1.1792261575
H -4.6214550072 0.2845148021 -2.8870753038
H -6.2237796435 -0.4685771255 -2.6274085116
H -6.1108088218 1.2760560022 -3.0359546838
H -2.2937003014 -1.2435094347 3.3006706106
H -0.6651337417 2.0584810697 -0.0155974013
H -3.0809476406 1.6245355589 0.1835335797
H 5.3290439052 -0.0826980732 -0.0379146623
H 1.9136953402 -2.4544340758 -1.1740723394
H 0.1505408055 -0.7804003762 3.0863702711
