51
CONF18
C 2.8570078654 -0.5811827951 -0.6048960527
C 2.4854174920 0.7953998999 -0.1146878138
C 1.6316172905 1.6081492421 -0.8841463424
C 1.2317715759 2.8607317106 -0.4208024794
C 1.6690350270 3.3262851502 0.8122194706
C 2.5189074803 2.5394038319 1.5744160276
C 2.9455231972 1.2844190729 1.1226514933
C 3.8820675817 0.5180280732 1.9810366099
C 3.5449973913 0.2271314624 3.3072453004
C 4.4295704314 -0.4607935861 4.1313886062
C 5.6695069686 -0.8636208231 3.6449329597
C 6.0193969604 -0.5728758200 2.3290642275
C 5.1332049614 0.1109138400 1.5046808363
C 1.1227213494 1.1343993955 -2.2161776805
O 0.0575029801 0.1408139557 -2.0595035503
C -1.1894018494 0.6395128938 -1.8829836079
O -1.4619799481 1.8203140826 -1.9097618943
C -2.1521826717 -0.4671003912 -1.6718880822
C -3.4712139528 -0.1277995740 -0.9693554081
C -3.4674273316 -0.5369580532 -2.4287648695
C -3.8221786591 0.5300299883 -3.4390544425
C -3.9365620402 -1.9207654312 -2.8223671309
C -3.9571074156 -1.0106039718 0.0838558058
C -4.6183950952 -0.6368983417 1.1818043161
C -5.0976340521 -1.6062490952 2.2266490674
F -4.5475985155 -1.3565773530 3.4355612052
F -6.4391502567 -1.5531613090 2.3836341476
F -4.7810868984 -2.8788929000 1.8953490321
Cl -5.0155141040 1.0186359858 1.5549797618
H 3.6340145860 -0.5378806693 -1.3786100153
H 3.2431607385 -1.1976526735 0.2076408014
H 1.9910149755 -1.0868867533 -1.0380994300
H 0.5582099284 3.4564742223 -1.0278812767
H 1.3533639432 4.2991636694 1.1742231679
H 2.8851501042 2.9003799701 2.5308440279
H 2.5732369318 0.5316099547 3.6845814587
H 4.1475321405 -0.6856387692 5.1551536641
H 6.3606730207 -1.3990104160 4.2877503435
H 6.9891414653 -0.8736654723 1.9450781159
H 5.4158424821 0.3498457918 0.4838624754
H 1.8900212592 0.6064578722 -2.7854876695
H 0.7371027028 1.9703605557 -2.8036652472
H -1.6994903299 -1.4233887683 -1.4318363213
H -3.6036833651 0.9370216403 -0.8052784222
H -4.9080016221 0.5495395416 -3.5802089832
H -3.4911649966 1.5196388844 -3.1232253399
H -3.3605841073 0.3026725283 -4.4066395643
H -3.5935487321 -2.6984332345 -2.1366074517
H -3.5567540564 -2.1674731909 -3.8191016607
H -5.0308586391 -1.9546688105 -2.8594317116
H -3.7751940068 -2.0756490131 -0.0181410512
