63
CONF228
C 7.6462030797 -2.5939913400 -3.1999496852
C 6.3935023649 -1.8886221113 -3.7126797992
N 5.4787458975 -1.5300661709 -2.6231334581
C 5.8159405627 -0.3951627038 -1.7635992912
C 4.5530016959 0.2705724649 -1.2760697699
N 3.7225400062 -0.7084745055 -0.5461580722
C 3.6729948132 -2.0075297430 -0.9929394707
O 3.0121116947 -2.8987892766 -0.4740051966
C 4.4915838812 -2.3725184825 -2.2636324036
O 4.1978036385 -3.4091085812 -2.8524992578
C 2.8627063194 -0.1552010465 0.4605906858
O 2.8185623479 1.0606532738 0.6167050360
N 2.1573353716 -1.0304399194 1.2060231109
C 1.1471594189 -0.5120657076 2.1086154217
C 0.4323150398 -1.6430991256 2.8176491029
C 0.3973172778 -1.6815897537 4.2115814148
C -0.2800420881 -2.7066172497 4.8675592527
C -0.9239191657 -3.6993742258 4.1337294652
C -0.8923111713 -3.6628793171 2.7406244362
C -0.2216414300 -2.6367825293 2.0831069087
C 0.1068855630 0.3156403442 1.3221649933
O -0.2022192360 0.0621796394 0.1634754867
N -0.4739278183 1.3151839363 2.0309700532
C -1.4994588711 2.1305036117 1.4638573764
C -2.8877902851 1.5241372203 1.0479057791
N -2.6359785321 2.0123794298 -0.3151678507
C -1.4082702527 2.5518067230 -0.0117302898
O -0.6238048762 3.1946589760 -0.6935553087
C -3.7971672671 2.5088537767 -1.0375409012
C -4.6065731419 3.3607036386 0.0030357697
S -4.4505144794 2.3410645644 1.5800886476
C -6.0842490839 3.4583713938 -0.3541399273
C -3.9914215321 4.7443719611 0.1973949211
C -3.5468535815 3.2782692049 -2.3390424911
O -2.3371970384 3.7448272996 -2.6312632771
O -4.4813045297 3.4655253069 -3.0901914206
H 8.2063117083 -1.9561379650 -2.5096948301
H 8.2991844976 -2.8403051195 -4.0421344259
H 7.3810018949 -3.5213733420 -2.6837965202
H 6.6561927752 -0.9634828408 -4.2367949257
H 5.8446689104 -2.5313694325 -4.4038414622
H 6.3868364542 0.3251713623 -2.3554904835
H 6.4399611722 -0.7153824550 -0.9177933293
H 4.8016726830 1.0777066126 -0.5875175165
H 3.9821429407 0.6892369003 -2.1136168003
H 2.1558558505 -2.0069883121 0.9265485837
H 1.6206747534 0.1384516679 2.8526621640
H 0.9053788222 -0.9105873224 4.7837607185
H -0.2992037393 -2.7313511934 5.9525463775
H -1.4486376872 -4.5002623300 4.6449312730
H -1.3945877812 -4.4332786941 2.1641686443
H -0.2113297630 -2.6046155691 0.9972371539
H -1.6424484533 3.0214480077 2.0818021085
H -2.9670426356 0.4379622642 1.1402600697
H -4.4100898255 1.6461482390 -1.3224718021
H -6.6360922544 3.9380114233 0.4594804423
H -6.5146867713 2.4710846738 -0.5401321932
H -6.2008031308 4.0714100393 -1.2520574985
H -4.1211347141 5.3415323947 -0.7133030858
H -2.9242861890 4.6950709168 0.4322194979
H -4.4931406624 5.2629127391 1.0179082755
H -0.1672983842 1.5094818233 2.9726627960
H -1.6340015943 3.5466850026 -1.9480234514
