27
CONF1
C 1.6559769241 0.0503683134 -0.8616315761
C 0.5758633540 -1.0127585922 -1.1136420324
C 0.3509009047 -1.8261127014 0.1702243266
C -0.1067071758 -0.8899696487 1.2990992886
C 0.9717387708 0.1750632474 1.5491784014
C 1.2009719516 0.9890154970 0.2662190007
C -0.1148473911 1.6707669355 -0.1466668545
C -1.1951600092 0.6114460246 -0.3993783341
C -0.7359028130 -0.3223671859 -1.5190144997
C -1.4173905268 -0.2015236501 0.8823968668
O -2.4172807409 1.2137741946 -0.8498185676
H 2.6027206978 -0.4328884225 -0.5879325851
H 1.8369312303 0.6256728565 -1.7786428489
H 0.8969786522 -1.6812067619 -1.9218899284
H -0.4050658612 -2.6027221059 -0.0036762713
H 1.2797583828 -2.3343069810 0.4595158719
H -0.2732995792 -1.4697258565 2.2155371618
H 1.9080361669 -0.3063283661 1.8594571197
H 0.6619264121 0.8404315914 2.3657396021
H 1.9681789818 1.7527719254 0.4445367957
H 0.0232985327 2.2631848245 -1.0594989321
H -0.4502805237 2.3552916988 0.6460653376
H -0.5996897076 0.2624917849 -2.4368351799
H -1.5221885258 -1.0623791474 -1.7122863275
H -1.7650304313 0.4659262263 1.6844374147
H -2.2065230318 -0.9421688980 0.7029824161
H -2.7239141470 1.8082531021 -0.1544754650
