36
CONF30
C -0.8829089598 -2.0051404086 -0.6519599332
C -0.7359801845 -0.8365165308 0.2999422580
C -1.3062444157 -1.1055042250 1.7178051587
C -1.4705058908 0.3132518332 2.3370045814
C -0.9634776802 1.2325416487 1.2077411641
C -1.4537400614 0.5057952491 -0.0733740010
C -2.9791473565 0.3851686573 -0.1678483398
C -0.9781634054 1.1586328350 -1.3756963680
C 0.5651767943 1.0466248825 1.1378328485
C 0.7242618032 -0.3945529034 0.5659994358
O 1.5067372286 -0.4502406434 -0.6326947804
C 2.8927033828 -0.2481973988 -0.3832184380
C 3.6368521675 -0.2453949649 -1.7003366456
O 3.2798564020 0.8551022615 -2.5475681950
H -1.9348863425 -2.2985217873 -0.7374849419
H -0.5093119761 -1.7605882746 -1.6500893736
H -0.3210661145 -2.8733273850 -0.2874370153
H -2.2645624834 -1.6282275609 1.6469176154
H -0.6327717609 -1.7449817115 2.2977227052
H -2.5137032811 0.5222874471 2.5909432163
H -0.8797716300 0.4427530628 3.2491051958
H -1.2786266092 2.2767593947 1.3013206001
H -3.2586425383 -0.1798780657 -1.0641432617
H -3.4368109770 -0.1064762797 0.6919842011
H -3.4228343872 1.3833931808 -0.2587439482
H -1.2709364310 0.5448243874 -2.2352343718
H -1.4598379314 2.1368975760 -1.4918984906
H 0.1013902169 1.2962204828 -1.4217335868
H 1.0358706694 1.1663125389 2.1184597664
H 1.0288249219 1.7659723669 0.4560288585
H 1.1908539927 -1.0734489925 1.2975482351
H 3.2896099742 -1.0565671514 0.2555675410
H 3.0636872054 0.7068998324 0.1412812576
H 3.3933459694 -1.1516040685 -2.2646861071
H 4.7169070103 -0.2484677893 -1.4928079172
H 3.5278534823 1.6681987106 -2.0893256106
