47
CONF160
C -2.1576989795 4.3903669959 2.3954322162
C -2.7882406669 3.7685953246 1.1697360358
C -3.8484233219 2.7319824831 1.3437828116
C -2.4313918145 2.2895631297 0.9496022784
C -2.2473450116 1.7234148583 -0.3894234024
O -2.9565763676 1.8754089364 -1.3630032295
O -1.1178604813 0.9443651764 -0.4209910487
C -0.8303430353 0.3228863743 -1.6988699720
C -1.8260149095 -0.7234863526 -1.9665294795
N -2.5846229811 -1.5683423998 -2.1784018692
C 0.5641332967 -0.2499935722 -1.6310262295
C 1.5509715416 0.2414891479 -2.4824007131
C 2.8409294522 -0.2779249749 -2.3997731963
C 3.1504082210 -1.2739210108 -1.4810069523
C 2.1466744457 -1.7592319447 -0.6405064901
C 0.8524596229 -1.2563784960 -0.7112017404
O 2.3829732021 -2.6997703620 0.3372728902
C 3.3913172479 -3.6362886895 0.1406964051
C 3.4376429464 -4.4086205078 -1.0167454359
C 4.4229040747 -5.3842088525 -1.1346381803
C 5.3414929289 -5.5902869336 -0.1057135101
C 5.2720860421 -4.8142387496 1.0489129845
C 4.2964270287 -3.8279924231 1.1774171495
C -4.3825798145 2.3445611503 2.6624638403
C -5.0369002576 1.2034318027 2.8720110371
Cl -5.7158691810 0.7661457695 4.4151539577
Cl -5.2771796870 0.0149274811 1.6226587105
C -2.8848011022 4.7045028565 -0.0124509555
H -1.1709580740 4.7906737312 2.1422294815
H -2.0347887821 3.6716845515 3.2097655222
H -2.7792414055 5.2186210591 2.7538292996
H -4.5462125668 2.6429932701 0.5130530294
H -1.8205386009 1.8430325602 1.7262854782
H -0.9035964806 1.0678940661 -2.4982253092
H 1.3153280164 1.0227241747 -3.1974230056
H 3.6191779453 0.1039234245 -3.0523664148
H 4.1583163580 -1.6682227638 -1.4139953246
H 0.0887903880 -1.6498217668 -0.0473945918
H 2.7131681526 -4.2471485215 -1.8085860512
H 4.4658206184 -5.9918265978 -2.0331536420
H 6.1052849714 -6.3547369090 -0.2033616295
H 5.9823754527 -4.9700840598 1.8548212733
H 4.2293153143 -3.2111152771 2.0674859216
H -4.2639049484 3.0158426910 3.5081619760
H -1.8857189308 5.0273802344 -0.3242666297
H -3.4515071066 5.5941076890 0.2824414768
H -3.3856821576 4.2431225439 -0.8647129560
