26
CONF108
C -2.7724425359 -0.2127027276 0.2859504075
C -1.4789744661 -1.0085654619 0.2714734103
C -0.2417520410 -0.1090965405 0.1706303135
C 1.0478032673 -0.9254540828 -0.0633710378
C 2.3706792613 -0.1408275566 -0.0146200857
C 2.5931767799 0.9752285297 -1.0226045553
O 1.8060375781 2.1499589859 -0.7517845309
O 2.5740054391 0.4348123769 1.2799584521
O 1.2363213872 -1.9366755235 0.9409614132
O -0.4832419165 0.7562794323 -0.9337726703
O -1.3670940707 -1.7551459221 1.4992552482
O -3.8245309263 -1.1737805044 0.4721065921
H -2.7472621824 0.5086279684 1.1161389525
H -2.8933318085 0.3264827338 -0.6592435925
H -1.4952235753 -1.7030708475 -0.5847455615
H -0.1534686118 0.4567355719 1.1131070702
H 0.9639578477 -1.3865652425 -1.0623222606
H 3.1507989517 -0.8950191348 -0.2174604078
H 2.3269934223 0.6374778574 -2.0280964314
H 3.6571128463 1.2437991978 -1.0132883633
H 2.3063712125 -0.2428029085 1.9185979672
H 0.3575057612 -2.1844842330 1.2836806229
H 0.2257016802 1.4336919631 -0.9170189132
H -2.1574040706 -2.3089222781 1.5661878998
H 1.9657370986 2.3830272946 0.1747470200
H -4.6496370016 -0.6935419941 0.6051213625
