71
CONF342
C 6.0605707545 -2.4661502194 -0.4731665873
C 6.7689847972 -1.5373856323 0.4723903143
C 6.0976535054 -1.0005600095 1.5838907148
C 6.7309299717 -0.1238702635 2.4788434518
C 8.0751805885 0.1849902558 2.2512302641
C 8.7598491966 -0.3434251192 1.1630389255
C 8.1066312349 -1.1929889446 0.2754872209
C 5.9937031382 0.4938623440 3.6314416192
N 4.7318303507 -1.3442368574 1.7677660357
C 4.2391290593 -2.0551143618 2.8116767954
O 4.9052242460 -2.4489022833 3.7687394311
C 2.7568660474 -2.4024485053 2.6916343210
N 2.0422126103 -1.6052523068 1.7034724041
C 1.6532192024 -0.2988586931 2.2516018077
C 0.9851533329 0.5419333885 1.1770950983
N -0.2089560285 -0.1343663178 0.6582943253
C 0.1826527529 -1.4406081353 0.1159869337
C 0.8524221894 -2.2898862066 1.1851591343
C -0.8593751682 0.7023908226 -0.3578710065
C -2.2396935634 0.1988838355 -0.7703676457
C -2.9346508165 1.1935109872 -1.6995807824
C -4.3190760163 0.7181423372 -2.1742424962
C -5.3226918902 0.4893407046 -1.0558348821
C -6.3033343629 -0.4946731829 -1.2168582258
C -7.2817483106 -0.7124369826 -0.2515051498
C -7.2605573205 0.0756144494 0.8862691499
C -6.3074584224 1.0563628665 1.0942184323
C -5.3387864224 1.2551621618 0.1128739818
F -8.2093304852 -0.1265027747 1.8396272170
C -4.8777798477 1.6738606366 -3.2170064004
C -5.3314137181 2.9475648886 -2.8599960144
C -5.8075077338 3.8375732974 -3.8173727617
C -5.8254697410 3.4286753200 -5.1407352616
C -5.3890685020 2.1788781672 -5.5406333027
C -4.9136240342 1.3057625790 -4.5635766829
F -6.2956838594 4.2905437790 -6.0822352602
H 6.7588455292 -2.8712441921 -1.2085608213
H 5.5963768350 -3.2993512067 0.0655285791
H 5.2588594279 -1.9519374363 -1.0169886374
H 8.5805610222 0.8626568660 2.9336415829
H 9.8024909583 -0.0873201818 1.0014386678
H 8.6389864171 -1.6046838213 -0.5772694501
H 6.5456708502 1.3528112125 4.0195909385
H 5.8573625087 -0.2288310163 4.4425392290
H 4.9948185553 0.8244120181 3.3283528137
H 4.0692376256 -1.2020877796 1.0096589913
H 2.7225260535 -3.4600363114 2.3978247484
H 2.3204239425 -2.3402676093 3.7037349713
H 0.9632938969 -0.4240951406 3.1076619560
H 2.5493641103 0.2187347037 2.6137764179
H 1.7184250590 0.7443978714 0.3696400280
H 0.6876310077 1.5054258110 1.6070584919
H -0.7062806072 -1.9698114739 -0.2408269123
H 0.8753205090 -1.3222293564 -0.7422571787
H 1.1579012257 -3.2467001050 0.7467431768
H 0.1256390144 -2.5000406578 1.9930361313
H -0.2173136977 0.8068344515 -1.2565404503
H -0.9698946285 1.7075762517 0.0702409107
H -2.1654042289 -0.7660394586 -1.2861244818
H -2.8421708257 0.0354680922 0.1311486757
H -3.0208244736 2.1738187735 -1.2130670585
H -2.3166130278 1.3521295185 -2.5923945607
H -4.1762484487 -0.2475900438 -2.6747539669
H -6.3055132985 -1.1023555201 -2.1179767603
H -8.0421242492 -1.4763313344 -0.3734235200
H -6.3215201216 1.6461556222 2.0045085878
H -4.5851218929 2.0182096687 0.2783515899
H -5.3210548096 3.2529720085 -1.8180642571
H -6.1624017299 4.8265535103 -3.5478214161
H -5.4228101832 1.8970566497 -6.5875473101
H -4.5644452562 0.3203538029 -4.8591563370
