45
CONF10
C 2.5545445058 2.9296462900 -3.3215441889
C 2.9975325902 1.6019843193 -2.7109041047
C 2.3376892748 1.3226568361 -1.3613308904
C 2.7571109940 -0.0201251160 -0.7644893122
C 2.2069347805 -0.2860461828 0.6378695753
C 0.6704919924 -0.3290502043 0.7368909894
C 0.2452290797 -0.6326031700 2.1864772246
C -1.2661004679 -0.7047790282 2.4138384450
C -2.0086723107 0.5977510125 2.1188929268
C -3.4980900204 0.5179134700 2.4510826650
C -4.2445266386 1.8114870861 2.1331845390
C 0.0695855601 -1.3162900105 -0.2393350069
C 0.3817838575 -2.6779814402 -0.1691211577
C -0.1732262909 -3.5865522317 -1.0627327052
C -1.0553650734 -3.1511262198 -2.0488399377
C -1.3750614857 -1.8004789329 -2.1309783347
C -0.8155998806 -0.8951217507 -1.2329180227
H 3.0412835688 3.1128764524 -4.2843244287
H 2.7982662875 3.7668757647 -2.6583862307
H 1.4716374105 2.9425280537 -3.4863707032
H 2.7621949523 0.7806627311 -3.4004750149
H 4.0887046146 1.5966471865 -2.5884264998
H 2.5844073250 2.1317975317 -0.6583092937
H 1.2477938550 1.3485114590 -1.4913990352
H 2.4425242623 -0.8280093516 -1.4384361013
H 3.8536537416 -0.0628832491 -0.7225661035
H 2.5713766161 0.4879530042 1.3273222895
H 2.6099896993 -1.2389752304 1.0059390435
H 0.2893201504 0.6655691945 0.4752073207
H 0.6997719096 -1.5841658392 2.4927949367
H 0.6778214614 0.1386035441 2.8387856032
H -1.6885514856 -1.5086904310 1.7965767633
H -1.4492461883 -0.9889473159 3.4586193579
H -1.8993691379 0.8583754804 1.0580465293
H -1.5504191397 1.4200638311 2.6877158799
H -3.6189913400 0.2722458723 3.5144294774
H -3.9447552140 -0.3142364177 1.8912033484
H -5.3079142776 1.7337886098 2.3793492298
H -4.1645255808 2.0578999299 1.0687931060
H -3.8303253097 2.6527200441 2.6996363860
H 1.0680775848 -3.0334635283 0.5942775347
H 0.0830066659 -4.6391611654 -0.9904095578
H -1.4887658297 -3.8601664511 -2.7467339105
H -2.0611121697 -1.4489535266 -2.8954320814
H -1.0701139040 0.1592501958 -1.3035957725
