18
CONF1
C -0.3695494892 -1.3664673420 0.0011574488
C -1.3177233710 -0.3549783681 0.0009433608
C -0.9837990014 0.9904807034 0.0008883861
C 0.3662798048 1.3055200020 0.0003106127
C 1.3644159980 0.3433164925 -0.0000719982
C 0.9627767075 -0.9835098256 0.0003972324
N 2.0049355807 -2.0405948227 -0.0003586445
O 1.6230751654 -3.2007766014 0.0009395450
O 3.1705129773 -1.6752747724 -0.0021037851
N 0.7609901424 2.7362614280 0.0001164371
O -0.1377729548 3.5633845654 0.0017324714
O 1.9568964343 2.9851981128 -0.0003925342
N -2.7538593159 -0.7298230061 -0.0004643212
O -3.0194909052 -1.9220646754 -0.0009664428
O -3.5683197621 0.1804890131 -0.0018958537
H -0.6578793755 -2.4093599405 0.0009090277
H -1.7434058105 1.7609644592 0.0005595403
H 2.4112683883 0.6169950659 -0.0007688822
