24
CONF5
C -4.4087828835 0.2372057952 -0.9395067322
C -2.8853406820 0.2759266013 -0.9326086957
C -2.3555343828 0.6298249456 0.4657316384
C -0.8546379331 1.0545025633 0.5790431380
C 0.2354861429 0.0508838333 0.0785155878
C 1.6705896701 0.3791909084 0.6222610752
C 2.8236463146 -0.3031186568 -0.1852404666
F 2.9720928580 0.2630403216 -1.3876046307
F 2.5774053779 -1.6115422863 -0.3429445468
F 3.9698465834 -0.1591790332 0.4954024102
F 1.8854924899 1.7146314640 0.5793464377
F 1.7660136553 -0.0445731863 1.9006363562
F 0.2789767489 0.0940239641 -1.2728954357
F -0.0750974889 -1.2019573282 0.4806461338
F -0.6072460328 1.3170655249 1.8880420532
F -0.7165791579 2.2058049065 -0.1288285944
F -3.0484522584 1.7006335440 0.9594156523
F -2.5718551423 -0.4177089254 1.3183405874
O -2.3131167068 -0.9466931236 -1.3636788783
H -4.8366349316 1.2154447894 -0.7116378238
H -4.7831744971 -0.4835035825 -0.2051448369
H -4.7381417226 -0.0714197780 -1.9339927631
H -2.5216778039 1.0420082683 -1.6264204229
H -2.6475800540 -1.6499894295 -0.7920511156
