47
CONF57
C -1.3988403798 4.0698634130 0.5769044063
C -2.1965201964 2.8196241556 0.8767729538
C -2.6434404073 2.6354478625 2.3067140775
C -1.4808555283 1.7919537968 1.7525293490
C -1.6203086832 0.3477760116 1.5061689203
O -2.6297889310 -0.2684998373 1.2400449531
O -0.3924658110 -0.2494907242 1.6107698681
C -0.3786846378 -1.6694843768 1.2845355608
C 0.7198844811 -2.2491344760 2.0532182427
N 1.5915166340 -2.7409174717 2.6290004636
C -0.2049363914 -1.8781042592 -0.2029379138
C -1.2964285395 -2.2636281588 -0.9771232819
C -1.1351910318 -2.4111473869 -2.3522353958
C 0.0982021354 -2.1887675380 -2.9478276089
C 1.1835190580 -1.8036873270 -2.1602125407
C 1.0385417671 -1.6394190722 -0.7866234905
O 2.3584975322 -1.5528879266 -2.8260031007
C 3.5633966676 -1.6445937307 -2.1431859915
C 4.4728641638 -0.6102338129 -2.3236792465
C 5.7238207086 -0.6948046016 -1.7199586610
C 6.0548365827 -1.7968145109 -0.9375847726
C 5.1315001601 -2.8257271388 -0.7683785686
C 3.8824606038 -2.7609076687 -1.3754761711
C -3.9330833071 2.0318407101 2.6516179033
C -4.7734824793 2.5031979636 3.5723691266
Br -6.4291957190 1.6466859133 3.9409022697
Br -4.4458937154 4.0609656031 4.6162829086
C -3.0817364510 2.3760529714 -0.2634485196
H -0.7779722170 4.3692302394 1.4259288961
H -2.0759145881 4.8979005802 0.3411482553
H -0.7452356567 3.9080840769 -0.2869873012
H -2.3093921192 3.4074576782 2.9932313078
H -0.4946920363 2.0779797137 2.1010842380
H -1.3222732929 -2.1169721440 1.6161875592
H -2.2607090408 -2.4288470457 -0.5102485591
H -1.9783357948 -2.7112853645 -2.9655057431
H 0.2421988134 -2.3085251352 -4.0158934184
H 1.8838714164 -1.3395699364 -0.1763097221
H 4.1924117733 0.2407632684 -2.9345041594
H 6.4388710622 0.1096350146 -1.8585191142
H 7.0277293297 -1.8556071036 -0.4619567168
H 5.3833551934 -3.6901415762 -0.1629622395
H 3.1608814485 -3.5614182005 -1.2521806816
H -4.2342997324 1.1307518495 2.1285130480
H -3.6130531177 1.4477687313 -0.0580670517
H -2.4783828658 2.2279118720 -1.1652933096
H -3.8172459606 3.1597258034 -0.4737743171
