47
CONF70
C 4.5074482805 -2.5353833663 1.6056438682
C 4.8443156921 -2.3455967387 0.1208482645
C 6.3172108647 -1.9581871104 -0.0618984894
C 3.9187941422 -1.3391921178 -0.5316908043
C 3.8932749067 -0.0051902132 -0.1128461288
C 3.0454157299 0.9220835371 -0.7056977793
C 2.2104115105 0.5046170760 -1.7315859619
C 2.2104127471 -0.8061491019 -2.1781161606
C 3.0678863012 -1.7190539403 -1.5708364074
O 1.3914195116 1.4483882753 -2.3758317044
P -0.0891844018 1.7710161626 -1.8786921110
O -0.7915501965 2.7671259734 -2.7004460611
O 0.1547849074 2.1494679115 -0.3252884739
C -0.8411621325 2.7125892783 0.4859185286
C -1.1367035700 2.0484961314 1.6682049428
C -2.1001078537 2.5827896612 2.5157109381
C -2.7532917412 3.7657346674 2.1798446973
C -2.4304634095 4.4210460778 0.9952190318
C -1.4645552871 3.9031995368 0.1367360221
O -0.7343326885 0.2868346463 -1.8344873422
C -1.8536411850 0.0209831072 -1.0403415756
C -3.0123223105 0.7791945100 -1.1537928742
C -4.0868838104 0.4780920415 -0.3228984038
C -4.0070510030 -0.5741159467 0.5849483753
C -2.8442937083 -1.3360878504 0.6622001224
C -1.7551034013 -1.0392137020 -0.1502823603
H 5.1413469840 -3.3109328742 2.0478224417
H 3.4611308532 -2.8260516156 1.7383760931
H 4.6726031243 -1.6091055473 2.1661599219
H 6.9718602825 -2.7266450758 0.3620040502
H 6.5647473037 -1.8378904411 -1.1205970282
H 6.5401219618 -1.0132766457 0.4448570145
H 4.5461193199 0.3233335035 0.6902263977
H 3.0230550234 1.9566014908 -0.3829427418
H 1.5485762366 -1.0994935391 -2.9848639823
H -0.6288018117 1.1187170505 1.8978341592
H -2.3452947280 2.0658544240 3.4376846188
H -3.5082613963 4.1773999291 2.8411048329
H -2.9306734706 5.3472849350 0.7314332504
H -1.2104726860 4.3931146168 -0.7953225598
H -3.0563776457 1.5969642051 -1.8650928078
H -4.9917853658 1.0728940111 -0.3898646532
H -4.8504713814 -0.8024408436 1.2276909795
H -2.7787355715 -2.1614897247 1.3637599212
H -0.8300842208 -1.6035750130 -0.0985214972
H 4.6841515328 -3.3061228753 -0.3856533107
H 3.0751124828 -2.7490141792 -1.9166212310
