51
CONF6
O 4.6720458974 0.1247973319 -1.8343229053
C 3.7812636509 0.7119618480 -0.8643753847
C 2.6346428884 1.3206562855 -1.6734082327
C 1.6872009621 2.2237214617 -0.8742357877
C 0.6507124460 1.4881606621 -0.0352809794
C -0.5158793025 0.7669264760 -0.7970824300
N -1.4379920763 1.6957865545 -0.0927770527
C -0.4393559360 2.3685985284 0.5753358883
O -0.4654789445 3.3193265748 1.3353164215
C -2.8272790268 1.8069352724 -0.1472764286
C -3.5088653206 2.6744037294 0.7179508547
C -4.8931755714 2.7731539005 0.6491209898
C -5.5739326762 1.9995701109 -0.2765006718
F -6.9286135279 2.0953388430 -0.3387161254
C -4.9270645317 1.1327485589 -1.1397783048
C -3.5413415233 1.0388580266 -1.0746323099
C -0.7371412655 -0.6889117086 -0.5179597793
C -0.5970146026 -1.6301429473 -1.5370390424
C -0.7539883566 -2.9894960930 -1.2864564211
C -1.0632236127 -3.4191940490 0.0043136399
O -1.2254269026 -4.7378277374 0.3224045715
C -1.2192948655 -2.4883800102 1.0338461561
C -1.0540401428 -1.1372496054 0.7681201064
C 3.3402932888 -0.3148374004 0.1528291365
C 3.4591476697 -0.0621596201 1.5199183983
C 3.0116800829 -0.9865646344 2.4625400128
C 2.4660814122 -2.1714642654 2.0020251186
F 2.0167315948 -3.0792939983 2.9084973945
C 2.3567381708 -2.4744879560 0.6545921475
C 2.7936747062 -1.5316725405 -0.2670673120
H 5.3720746608 -0.3287314334 -1.3470412232
H 4.2981478264 1.5265922122 -0.3329168247
H 3.0960065489 1.9179603715 -2.4680058389
H 2.0729384460 0.5148923286 -2.1641386128
H 2.2678379934 2.8818507293 -0.2146733188
H 1.1540943188 2.8776621578 -1.5751644197
H 1.1066979210 0.8340477145 0.7126340534
H -0.4919492047 0.9590297286 -1.8767512621
H -2.9560762485 3.2667098791 1.4363971712
H -5.4385640863 3.4396551725 1.3083768249
H -5.4956302011 0.5441559734 -1.8513157646
H -3.0172762323 0.3652092524 -1.7435394546
H -0.3579720777 -1.2989059378 -2.5444194770
H -0.6387496899 -3.7142751575 -2.0881693048
H -1.0902956348 -5.2797043656 -0.4665665585
H -1.4642030978 -2.8361358713 2.0323366073
H -1.1780665242 -0.4196509113 1.5751034910
H 3.8904173542 0.8764170003 1.8575316833
H 3.0867095229 -0.7966760904 3.5277407133
H 1.9199470828 -3.4163846842 0.3422876694
H 2.7028065468 -1.7429799795 -1.3279017339
