55
CONF119
C 5.4568685136 -3.8853913130 -2.3553113351
O 4.2412642050 -3.2083137205 -2.7005547099
C 3.4453313844 -2.7846059472 -1.6805450557
C 3.7318318542 -2.9647527296 -0.3255403613
C 2.8353069694 -2.4881540722 0.6286276688
C 1.6611633676 -1.8294500613 0.2667733478
C 1.3859990868 -1.6669586910 -1.0976310861
C 2.2636711581 -2.1349900022 -2.0601304661
C 0.7569793422 -1.3039184414 1.3495199132
S -0.9793536348 -1.8923976243 1.0112036766
C -1.9679145153 -0.7521125045 1.9620546580
C -2.7394003631 -1.2411991748 3.0202898650
C -3.5954135640 -0.4000325090 3.7211098922
C -3.6630137199 0.9509448284 3.3882982899
C -2.8874306687 1.4534372569 2.3513343592
C -2.0463305431 0.6111300205 1.6199405885
N -1.3017888550 1.1546292266 0.5371947970
C -2.0366908600 1.8306162937 -0.5449009782
C -2.4828056637 0.7970195290 -1.5991945565
N -3.2376586282 1.3250229510 -2.7313797457
C -2.4571396969 2.2387052923 -3.5647170137
C -4.5159987746 1.9186714281 -2.3439712046
C 0.0421006115 0.9701537747 0.3831110772
O 0.6663982858 1.3962025638 -0.5849247036
C 0.7488574120 0.2262903063 1.5210023129
O 2.1285886980 0.6230206099 1.5779792944
C 2.3479326394 1.9125058551 1.9432387264
C 3.8044616138 2.2479327167 1.8881290115
O 1.4526878008 2.6721162237 2.2469679267
H 6.1156124216 -3.2350360928 -1.7680151379
H 5.9359911443 -4.1330830733 -3.3027603805
H 5.2491268615 -4.8048911400 -1.7956888696
H 4.6328289500 -3.4703198249 -0.0012003915
H 3.0650450682 -2.6310559370 1.6809726000
H 0.4737561548 -1.1713893223 -1.4114611142
H 2.0492951921 -2.0089166461 -3.1165197320
H 1.0759012051 -1.7265125327 2.3075048546
H -2.6664846884 -2.2915336625 3.2819441963
H -4.1958927430 -0.7963258550 4.5331969246
H -4.3100695888 1.6205073514 3.9453646311
H -2.9223538410 2.5103260979 2.1080115638
H -1.3780554886 2.5838328534 -0.9813859883
H -2.9009812675 2.3322930123 -0.1057622182
H -1.5873932855 0.2927670814 -1.9842703948
H -3.0963504984 0.0368398653 -1.0967892639
H -1.5017858131 1.7725050786 -3.8282162664
H -2.2462260144 3.2098199985 -3.0808327858
H -3.0070150544 2.4439245062 -4.4900767734
H -5.0723225814 1.2179767366 -1.7119898057
H -4.4136409884 2.8735405953 -1.7962995603
H -5.1104711424 2.1172748594 -3.2427705469
H 0.2733334540 0.4749104250 2.4743929408
H 4.0029580166 3.1242815599 2.5045289500
H 4.4175188832 1.4013136966 2.2021196432
H 4.0591703789 2.4808295743 0.8480283499
