27
CONF2
C -1.6331618812 -0.1897885910 2.2736334490
C -2.3685237232 -0.0775385313 0.9411101555
C -1.6322336255 -0.7634416807 -0.2140996418
C -2.3606352645 -0.6481719563 -1.5501905871
N -0.2176232867 -0.2998766768 -0.3264332614
C 0.8036665286 -1.2639940206 -0.0962796584
O 0.5311099318 -2.4199073547 0.1706426858
C 2.1666390244 -0.7542388190 -0.2094942925
C 2.4299878004 0.5428417592 -0.5032904162
N 1.3613030819 1.3827908154 -0.6958605567
C 0.0161937149 1.0326096533 -0.6182792810
O -0.8496733542 1.8717519226 -0.8008802953
C 3.7718081330 1.1777661084 -0.6477779704
Br 3.5428340093 -2.0214007936 0.0813698199
H -2.2372310102 0.2222581305 3.0868092755
H -1.4025786659 -1.2331035539 2.5135972241
H -0.6879761042 0.3632575051 2.2563443364
H -2.5614284302 0.9696888443 0.6927566972
H -3.3439776257 -0.5739606083 1.0158585540
H -1.5256781559 -1.8216882940 0.0352215351
H -1.7980819812 -1.1529883814 -2.3412493988
H -3.3342844779 -1.1399870713 -1.4645685963
H -2.5196518487 0.3936672018 -1.8336736271
H 1.5189463499 2.3556238029 -0.9119077912
H 4.5669948307 0.4623901197 -0.4491969456
H 3.8684713606 2.0173749961 0.0497677700
H 3.8947842726 1.5680655741 -1.6645526848
