26
CONF1
C -3.4700579381 0.2296750383 0.3283298954
C -2.4882042592 -0.4641700108 -0.6201530809
C -1.0286401402 0.0344036708 -0.6757635318
C -0.2435457740 0.0030924628 0.6453573425
C 1.2161112496 0.5015331676 0.5899088576
C 2.1994701092 -0.1946250520 -0.3553945923
O 2.0940511617 0.2993035038 -1.6866828101
O 1.2083913017 1.9071516038 0.3210021387
O -0.8974990839 0.8347218489 1.6219606508
O -0.3745374306 -0.7967710610 -1.6526493187
O -2.4803557291 -1.8705175317 -0.3549487883
O -3.3635279801 -0.2689132179 1.6577463785
H -3.3385974662 1.3201245706 0.2857922421
H -4.4862554034 -0.0068350925 -0.0035104674
H -2.8645745696 -0.3396522249 -1.6454616520
H -1.0167332605 1.0579586098 -1.0745422412
H -0.2557902077 -1.0203425913 1.0443939550
H 1.5913036453 0.3797772675 1.6159788133
H 2.0691257124 -1.2850477351 -0.3094213975
H 3.2150621726 0.0441228224 -0.0233140051
H 1.4179703992 1.9853509798 -0.6247345575
H -0.6679659094 -1.7018521871 -1.4631879177
H 1.2892247211 -0.1114233587 -2.0479873644
H -2.5568944624 0.1383946995 2.0189691437
H -0.6035063984 1.7396072014 1.4323733831
H -2.6881858926 -1.9512168692 0.5909524984
