20
CONF11
C -1.0241114814 -0.4304898829 -0.3402067242
C -2.3537231740 -0.6467345376 0.3578936572
I -3.7333356153 1.0561636400 0.2298255644
C -0.0153329067 0.3336561478 0.4891777977
C 1.3273163620 0.5787669480 -0.2663719079
C 2.5178940066 1.0582619162 0.6281249007
C 3.6958086247 1.7116807874 -0.1664414788
F 3.3495265512 2.9175932243 -0.6310499209
F 4.7444045663 1.8581478829 0.6563804237
F 4.0600151003 0.9332750027 -1.1954239746
F 3.0188283025 -0.0070510862 1.2939846035
F 2.0850391126 1.9717939978 1.5278676104
F 1.7071894844 -0.5766565919 -0.8688882494
F 1.1034730032 1.5076065235 -1.2322336474
F -0.4966373787 1.5531502905 0.8740236493
F 0.2793124695 -0.3565154367 1.6392192247
H -1.1467095569 0.0636496103 -1.3082365754
H -0.5927217465 -1.4198875810 -0.5319981784
H -2.9066311339 -1.4487385580 -0.1253549421
H -2.2543778458 -0.8501621904 1.4231376243
