45
CONF46
O -0.6382449332 -0.6927312902 -2.9040900909
C -1.9620740400 -1.1343991988 -2.6383044743
C -2.4523768201 -0.8145957757 -1.2435909414
O -1.6256626718 -1.5276953271 -0.2722686964
C -1.4884732712 -0.7733339483 0.9165831932
C -1.8001174286 -1.6738765169 2.1055406387
O -3.0898036868 -2.2498484213 2.0039287170
O -0.1410333928 -0.2685939206 1.1058623822
C 0.9198894469 -0.9421705941 0.4501435413
O 1.2251814517 -0.3461302128 -0.7975584197
C 1.6664113299 1.0361552018 -0.7172451455
C 1.7918852337 1.5708432716 -2.1345546588
O 0.5385472444 1.8978952462 -2.7107565783
C 2.9683523706 1.0800152147 0.0781140654
O 3.3927646804 2.4349777603 0.1543663197
C 2.7073751957 0.5120887500 1.4648919825
O 3.9439131823 0.5245613091 2.1737632717
C 2.1426267886 -0.8999908935 1.3710307362
O 1.8538728037 -1.4262113565 2.6628432970
C -2.4038032255 0.4509699063 0.7387713462
O -2.0318162314 1.5842388629 1.4890117021
C -2.3991281362 0.6325286123 -0.7831470681
O -3.5210983019 1.3254116692 -1.2969389248
H -0.0716247265 -0.9170968658 -2.1454519261
H -2.6237167141 -0.6327654693 -3.3527150958
H -2.0445394340 -2.2203290733 -2.7998026267
H -3.4916146994 -1.1691555992 -1.1544995188
H -1.7889327346 -1.0654101957 3.0160015600
H -1.0091613668 -2.4380699140 2.1845715905
H -3.0900014545 -2.7976994071 1.2091281284
H 0.6425663148 -1.9761916958 0.2236203150
H 0.9058251485 1.6356544645 -0.1964034420
H 2.3513492342 0.8428696836 -2.7440388192
H 2.3736602967 2.4957376630 -2.0889046668
H 0.0761065196 1.0719845891 -2.9361953248
H 3.7265570905 0.4566637473 -0.4274646987
H 4.1001456187 2.4688777535 0.8108304423
H 1.9727817277 1.1667152765 1.9675905593
H 3.7994020937 0.0614371658 3.0088881911
H 2.9088852891 -1.5546826377 0.9398306451
H 1.0640570709 -0.9624252579 2.9758117251
H -3.4180300512 0.1781298798 1.0540832086
H -1.0803958037 1.7054990426 1.3657171163
H -1.4547125724 1.1029574705 -1.1025541110
H -3.4457934351 2.2471911370 -1.0244392348
