45
CONF197
C -3.8040102469 4.8786944606 0.0593473198
O -4.2591457835 3.5103464981 0.0526145657
N -3.2296266402 2.6875686657 -0.3522304442
C -3.5595031792 1.4330772874 -0.3688008599
C -4.8287516391 0.8586981921 -0.0100708246
C -6.0808652482 1.3583106429 0.2691876161
C -6.8990592821 0.2480697908 0.6058625172
C -6.1043340449 -0.8563336021 0.5256895010
O -4.8463692678 -0.5117358957 0.1530209198
C -2.4665571043 0.5297533898 -0.8908913163
O -2.7034124548 -0.3561088784 -1.7068410494
N -1.2280395153 0.8054953415 -0.4043744590
C -0.0604413232 0.1232668765 -0.8556210541
C 0.8355064191 -0.6293620878 0.1850291518
N 1.9654771884 0.2014439476 -0.2925105801
C 1.2065239490 0.9561765190 -1.1665117295
O 1.4839127032 1.8869415716 -1.8862539038
C 3.3339449188 -0.1133347225 -0.2175824149
C 3.6737384489 -1.3769762348 -0.5676815190
C 2.5970587399 -2.2379845007 -1.1559778999
S 1.1717037648 -2.4182970780 0.0209887625
C 5.0378516255 -1.9827833662 -0.4056709766
O 4.9390156718 -3.3607565508 0.0155034213
C 4.6145948557 -3.5337361204 1.3361129639
O 4.4714718805 -2.6097304467 2.1230863558
N 4.4867044294 -4.8425665924 1.6214008988
C 4.2657892720 0.9053438826 0.3079253641
O 5.4784335922 0.8380772194 0.2308579656
O 3.6121607320 1.9407960339 0.8698825631
H -3.5038538262 5.1839274274 -0.9474623749
H -4.6638554524 5.4626770450 0.3906035907
H -2.9715122498 4.9994423935 0.7590069391
H -6.3764441698 2.3929793789 0.2293526212
H -7.9443636871 0.2671040902 0.8758303714
H -6.2730564596 -1.9089670391 0.6952304732
H -1.1330233213 1.5508628546 0.2716798577
H -0.3161392010 -0.5167071732 -1.7053101795
H 0.5620450176 -0.4237073950 1.2249258024
H 2.2230242499 -1.7956315729 -2.0858040224
H 2.9488365980 -3.2496798202 -1.3592937008
H 5.5337849477 -2.0281808893 -1.3811924624
H 5.6595757858 -1.4173731634 0.2857080778
H 4.2591760891 -5.1156417148 2.5621186056
H 4.6159203025 -5.5477822015 0.9149320962
H 4.2761122217 2.5832919352 1.1741832749
