54
CONF9
C -0.1328437890 -4.1714819563 0.5928361587
C 0.4669288817 -2.8283522130 0.2037604613
C -0.5362586354 -1.7032058374 0.2350699845
O -1.7272970378 -1.8322821994 0.4321237682
O 0.0818221392 -0.5270968292 0.0024023423
C -0.6698748630 0.7370981062 0.0014174279
C -1.2190131595 0.9822402660 1.4346395946
C -0.2140857507 0.7552996447 2.5359613021
C 0.6467253099 1.7743092547 2.9597549347
C 1.5855492287 1.5483425757 3.9636279243
C 1.6766487158 0.2972234020 4.5694666276
C 0.8107037356 -0.7197868631 4.1736844732
C -0.1266724559 -0.4893079739 3.1700560384
C -1.7744289869 0.6930444776 -1.0458291850
C -2.9270120109 1.4724513409 -0.9092814952
C -3.9079581850 1.4780191629 -1.8993074410
C -3.7555783247 0.7038009013 -3.0449695592
C -2.6104532428 -0.0763271695 -3.1913870885
C -1.6307747344 -0.0788318644 -2.2042714302
C 0.4214583329 1.7813854561 -0.3737323685
C -0.1083862202 3.2156228245 -0.4069901667
C 1.1150356196 1.4670447278 -1.7105747149
N 2.4157271855 2.1469067949 -1.8207562860
C 2.8216589230 2.2237890567 -3.2261117320
C 3.4432654936 1.4299496829 -1.0607192264
H -0.9417959916 -4.4523900078 -0.0864896028
H -0.5386597705 -4.1380823147 1.6079388887
H 0.8867640051 -2.8570979817 -0.8101538089
H 1.2981606710 -2.5517673788 0.8628967775
H -1.5817285142 2.0108387182 1.4844192673
H -2.0780689104 0.3247081436 1.5808629068
H 0.5760910647 2.7602503886 2.5098024329
H 2.2424946019 2.3542356709 4.2769057667
H 2.4074752770 0.1202783681 5.3525221516
H 0.8597581280 -1.6940262806 4.6509282112
H -0.8098199838 -1.2835103026 2.8829393890
H -3.0741652927 2.0871621486 -0.0286480792
H -4.7947025019 2.0907148459 -1.7682337991
H -4.5209722636 0.7051480600 -3.8146466828
H -2.4780078834 -0.6896366151 -4.0775473419
H -0.7510281210 -0.6995901015 -2.3360138628
H 1.1698432769 1.7030938542 0.4233239062
H 0.4755659860 1.8249622198 -2.5266615743
H 1.2406410540 0.3795752060 -1.8481360724
H 2.9185014575 1.2250023041 -3.6947759098
H 3.7908262255 2.7282015998 -3.3024530670
H 2.0859155622 2.8002482617 -3.7965669479
H 3.1713532053 1.3660373518 -0.0029144167
H 3.5974936057 0.3999972096 -1.4382824738
H 4.3946537734 1.9674270448 -1.1312909871
H 0.6344722795 -4.9489861559 0.5549403522
H -0.4821140829 3.5582347163 0.5610074705
H 0.7057527629 3.8814483764 -0.7049450523
H -0.9149788026 3.3171257231 -1.1405675452
