28
CONF1
C -4.2887892240 -0.6859566198 1.0258776996
C -4.0838831211 0.6772398711 0.8229955699
C -2.8702658146 1.1381247811 0.3249552045
C -1.8560069236 0.2265450987 0.0227207759
C -2.0642032325 -1.1439161544 0.1994353033
C -3.2773855254 -1.5914776537 0.7099926962
N -0.6540769744 0.7242624625 -0.5353213454
C 0.6030906882 0.3694952243 -0.2018724660
C 0.8555853277 -0.4085427492 0.9614098229
C 2.1196665527 -0.7840794040 1.3257790616
C 3.2128640278 -0.4029798880 0.5305603893
C 3.0344481710 0.3665850967 -0.5996115413
C 1.7533857592 0.7619754059 -0.9649667071
N 1.6545111891 1.5722408050 -2.1607330255
O 2.6504578922 1.7120429808 -2.8670356491
O 0.5648394428 2.1022652672 -2.4315569397
N 4.5529397024 -0.8040749958 0.9077736214
O 4.6817066596 -1.5107721709 1.9099675327
O 5.4986845114 -0.4246717848 0.2141856083
H -5.2351173724 -1.0423555343 1.4192443739
H -4.8687859472 1.3885240031 1.0592680810
H -2.6995865359 2.1993595725 0.1723126526
H -1.2925464745 -1.8532200289 -0.0810222780
H -3.4371872213 -2.6563951190 0.8449696808
H -0.7324715030 1.4363563748 -1.2537261911
H 0.0194906595 -0.6819972104 1.5919143018
H 2.2792552924 -1.3548849555 2.2317530455
H 3.8793806937 0.6703080250 -1.2016833781
