39
CONF14
C 4.0371956085 -1.0805085013 -1.6299745251
C 3.4912974509 0.3372670557 -1.7926255382
C 3.7572928495 1.2408244454 -0.5860068845
C 3.0324950980 0.8113449994 0.6929600650
N 1.5800510853 0.8607884219 0.5505819409
C 0.8255037648 -0.2495068527 0.3966908950
O 1.2439528107 -1.3973759259 0.4984697948
N -0.5449791383 0.0103813941 0.1245167969
C -1.1351034549 1.1652104971 -0.4151046094
C -0.6236902016 2.2636247273 -1.0958825428
C -1.5402232610 3.2175292435 -1.5400120877
C -2.9134880414 3.0618618972 -1.3306928745
C -3.4217770160 1.9374770143 -0.6884215168
C -2.5221592393 0.9783727384 -0.2343451383
N -2.7906126680 -0.2390292546 0.3705070381
C -1.6283647182 -0.7906279720 0.5661934210
N -1.3455572282 -2.0115831545 1.1249306491
C -2.1758955343 -2.8967468724 1.8032184549
O -1.7728260597 -3.9749222610 2.1831887339
O -3.4122526447 -2.4154619331 1.9823001479
C -4.2966689543 -3.3171474569 2.6799226202
H 3.8863547190 -1.6608009532 -2.5447251249
H 3.5343358754 -1.6158558821 -0.8197408629
H 5.1122606479 -1.0634292436 -1.4184907218
H 2.4116978943 0.2970280854 -1.9895881094
H 3.9417736385 0.8041682724 -2.6764872345
H 4.8336729840 1.2578482520 -0.3693901075
H 3.4728337877 2.2744832051 -0.8249945103
H 3.3179133453 1.4648127272 1.5252626041
H 3.2949226343 -0.2118549384 0.9722164249
H 1.1212729613 1.7583479424 0.5582929361
H 0.4308704902 2.3774456607 -1.3222250253
H -1.1742272587 4.0895130710 -2.0711520263
H -3.5949686006 3.8245436992 -1.6923953863
H -4.4870576590 1.7915206579 -0.5490881127
H -0.3841082880 -2.3246305250 1.0223906255
H -3.9127330465 -3.5297618351 3.6808820543
H -4.3993223295 -4.2533300568 2.1257381622
H -5.2496804776 -2.7918218918 2.7330799661
