42
CONF30
C -2.7543538562 -2.2963262520 -0.4096747369
C -2.3207848043 -0.8723859309 -0.4809927954
C -3.1102263565 0.2379645423 -0.5261670958
C -2.2584457583 1.4232913505 -0.5786472315
C -0.9017378040 1.0158599789 -0.5387606992
C -0.9048259766 -0.4576044903 -0.4468543421
C 0.1094639420 -1.3537751141 -0.3656979830
C 1.5320472623 -1.1194425346 -0.1449975369
C 2.4708030573 -1.9321605890 -0.8012311692
C 3.8341706474 -1.7583850613 -0.5967430185
C 4.2611263735 -0.7908490714 0.3031286012
C 3.3546745415 0.0143645887 0.9894538109
C 1.9963858304 -0.1594041139 0.7700044273
S 6.0477626706 -0.5401785849 0.5469795540
O 6.7619443485 -1.4550205754 -0.4506803952
C 6.1599938561 -1.3748398627 2.1792360359
C 0.1036114311 1.9609901284 -0.7005932163
C -0.2313758550 3.3122447628 -0.8375927995
C -1.5685555434 3.6729103109 -0.8210508239
C -2.6101737173 2.7621273569 -0.7052303861
F -1.8820334128 4.9913955707 -0.9415532423
C -4.5962874217 0.3172090665 -0.5249181364
C -5.1641528679 0.7948030137 0.7950429627
O -4.5412355350 0.9355345213 1.8254540710
O -6.4872226936 1.0358130528 0.6924989483
H -2.4174705391 -2.7624572245 0.5234928362
H -3.8406519297 -2.3888730498 -0.4578164974
H -2.3276435008 -2.8811913104 -1.2328174002
H -0.1602846751 -2.4036756251 -0.4713725533
H 2.1234374180 -2.6979082811 -1.4888332368
H 4.5622046456 -2.3686871821 -1.1214214041
H 3.7007070318 0.7608743794 1.6990408792
H 1.2827399197 0.4381946276 1.3270200338
H 5.8052334862 -2.4023416830 2.0649123818
H 7.2120556316 -1.3469717011 2.4729777267
H 5.5492347465 -0.8209057985 2.8971775098
H 1.1492109212 1.6787925484 -0.7272376351
H 0.5326685167 4.0723680025 -0.9559062720
H -3.6408581663 3.1006947518 -0.7331737656
H -5.0581016824 -0.6534009306 -0.7358965436
H -4.9575438929 0.9971992393 -1.3071560229
H -6.8155106123 1.3141536811 1.5646488745
