33
CONF118
C 2.0491159997 2.5718084090 3.9033049595
C 0.8404233624 1.6502184400 3.6949608824
C 1.0568886240 0.6661783870 2.5794034735
C 1.2075525997 -0.6490824726 2.7637657805
C 1.0592534338 1.2508663299 1.2118769479
O 0.6760983707 2.3735259814 0.9542332775
O 1.5337568051 0.3958051912 0.2679601059
C 1.4768823827 0.8748500206 -1.0888020272
C 0.0684578951 0.8247778119 -1.6699389170
C -0.5227540308 -0.5710276655 -1.6932840907
C -1.7909911523 -0.6606514188 -2.5864373817
C -2.6643087514 -1.9608803777 -2.5305174198
C -1.9586376688 -3.3297223322 -2.7743716588
F -1.2091443599 -3.2907253523 -3.8839858669
F -1.1900513780 -3.6624749606 -1.7312519946
F -2.8985025384 -4.2747108351 -2.9252776669
F -3.2805588657 -2.0280456652 -1.3304759092
F -3.6089790585 -1.8220622884 -3.4941502177
F -2.6242186365 0.3546555012 -2.2311468691
F -1.4123829803 -0.4636520381 -3.8751422808
F -0.8660888326 -0.9841609058 -0.4371645659
F 0.3850492289 -1.4705253119 -2.1890643433
H 2.9423979967 1.9898900839 4.1498750820
H 1.8596168536 3.2721459928 4.7217569495
H 2.2526708516 3.1545108525 3.0011375948
H 0.6294618815 1.0958508834 4.6147337793
H -0.0397682367 2.2599185371 3.4634755359
H 1.3596650956 -1.3270926295 1.9327907368
H 1.1653285105 -1.0730429026 3.7625364087
H 2.1552776786 0.2233426977 -1.6419961297
H 1.8363320218 1.9072679464 -1.1300564412
H -0.6014373984 1.4793585089 -1.1081594640
H 0.1135932856 1.1936072908 -2.7005885608
