48
CONF859
C -2.5548141467 1.7306101521 -1.4638672840
C -1.2128142986 1.5064131564 -2.1542266731
C -0.1190319172 1.0723735532 -1.1764362656
C 1.2454136790 0.9296198231 -1.8533965832
O 1.5391394780 1.4542031448 -2.9068344880
O 2.0929349487 0.2250742017 -1.0944799295
C 3.4562260374 0.0884736954 -1.5986202907
C 4.2463674639 -0.6806473936 -0.5632444096
C 4.2702285625 -0.0065342745 0.8197852538
C 4.8208675885 1.3851282160 0.7764124371
C 4.1455995226 2.4798577443 1.1235551601
N -0.4666517887 -0.1244859058 -0.3964626413
C -0.2864007273 -0.0227642025 1.0721212108
C -1.2411783911 0.9189638868 1.7022537240
C -1.0963347090 2.1625018039 2.2381038261
C -2.3954615942 2.5800717451 2.6652577966
C -3.2435579493 1.5636548445 2.3587622397
O -2.5569144207 0.5356423571 1.7736184045
C -0.5154274598 -1.2895520912 -1.0855432098
O -0.1898183386 -1.4086700008 -2.2603519914
N -1.0075992027 -2.4324821453 -0.3776458898
C -2.0853306501 -2.5310894253 0.4927465966
C -2.1910721871 -3.8607776128 0.7848670353
N -1.2105214615 -4.5867790545 0.1279870101
C -0.5297534444 -3.7074944481 -0.5695216989
H -2.9412034091 0.8025035463 -1.0322654969
H -2.4668864353 2.4654596592 -0.6553874505
H -3.2915237970 2.1013628936 -2.1820104596
H -1.3081562811 0.7655722800 -2.9533272110
H -0.8683418172 2.4344659266 -2.6198380520
H 0.0057756112 1.8788297477 -0.4400739830
H 3.8621195816 1.0924228511 -1.7582703086
H 3.4211479017 -0.4386924883 -2.5569079729
H 3.8407856428 -1.6942494752 -0.4680048020
H 5.2689954489 -0.7773631453 -0.9483324091
H 4.8909182420 -0.6241395829 1.4819663364
H 3.2605665845 0.0097680798 1.2441173123
H 5.8464239729 1.4828926110 0.4154989216
H 4.5942234375 3.4674342362 1.0676468128
H 3.1183657301 2.4171714127 1.4785375602
H -0.3615945121 -1.0188800994 1.5123554115
H 0.7281606311 0.3463038753 1.2625601634
H -0.1698753927 2.7134500440 2.3137973571
H -2.6610944449 3.5145276051 3.1369372147
H -4.3042333928 1.4097787868 2.4840158374
H -2.6698264586 -1.6717671038 0.7806866675
H -2.9218219434 -4.3388555453 1.4223256135
H 0.3185032411 -3.9031443539 -1.2116991945
