44
CONF13
C -6.8401055409 -0.1198457169 0.9633726103
N -5.5413745785 -0.3248934524 0.3311199121
C -5.0911254553 0.8954734914 -0.3381071519
C -3.7608233215 0.6547362287 -1.0334264730
N -2.7711302023 0.1748222766 -0.0617860862
C -3.2091146664 -1.0311174133 0.6384088023
C -4.5451932320 -0.7441743382 1.3149922809
C -1.4358773319 0.4768527739 -0.2385620549
C -1.0084036605 1.8252535428 -0.2930550584
C 0.3003298353 2.1853240499 -0.4245788652
C 1.2975696405 1.2024300461 -0.4729205801
C 0.9509359145 -0.1681016914 -0.4048457521
C -0.4194243946 -0.4803821532 -0.3376128672
F -0.8202548682 -1.7760101686 -0.4038662275
N 1.9731377015 -1.1266690768 -0.4558303285
C 3.2618287403 -0.7185984062 -0.5577369664
C 3.6647398203 0.5825654913 -0.6313802893
C 2.6893502778 1.6385922681 -0.5850708162
O 2.9897602784 2.8504347368 -0.6384987828
C 5.1339399421 0.8392046501 -0.7515331995
O 5.4772242277 2.1274076258 -0.8123609688
O 5.9472985491 -0.0597911571 -0.7868822236
C 1.7530598565 -2.5689699110 -0.2355642039
C 1.4869096260 -2.8493414279 1.2386300562
F 1.2601981378 -4.2166654737 1.3789894855
F -1.9481514778 2.7835932195 -0.1688557600
H -7.1737461155 -1.0510320137 1.4328587297
H -6.8189750807 0.6708928822 1.7381496144
H -7.5785381935 0.1631065528 0.2061308570
H -5.8390591814 1.1842523874 -1.0862213908
H -4.9777284269 1.7375709176 0.3748807052
H -3.4086854974 1.5780456250 -1.4955403164
H -3.8941051862 -0.1008348220 -1.8262361852
H -3.3268761908 -1.8839874452 -0.0475543138
H -2.4687181358 -1.2936361503 1.3989465453
H -4.8958059244 -1.6619288923 1.8024796397
H -4.3972344061 0.0239763911 2.1021345163
H 0.5972356480 3.2273675582 -0.4509325014
H 4.0166744062 -1.4986014090 -0.5837237455
H 0.9370189651 -2.9412746065 -0.8515064620
H 2.6660119610 -3.0846921542 -0.5411114475
H 0.6009631139 -2.3150883327 1.5987173585
H 2.3550530605 -2.5767088485 1.8513877121
H 4.6372330601 2.6689485859 -0.7623172176
