47
CONF23
C 4.1236308156 0.3650857604 2.1678024646
C 4.0390617716 0.5512670531 0.7035878281
C 3.0272006005 0.4641465617 -0.2151874730
C 3.6394298033 0.8207706282 -1.4587149103
N 4.9210132039 1.0761009891 -1.2995153700
O 5.1722690440 0.9236592225 0.0748549681
C 3.0433987843 0.8769749421 -2.7986156265
C 2.0866482627 -0.0685897590 -3.1849303059
C 1.5436086340 -0.0286839617 -4.4637675618
C 1.9477829624 0.9537834067 -5.3663881000
C 2.9013437283 1.8961697302 -4.9863117044
C 3.4482279045 1.8610700103 -3.7081300989
C 1.5900789781 0.2349830064 0.0357378120
O 0.7139423821 0.9284675351 -0.4844872637
N 1.2955490511 -0.7845619675 0.8865202771
C -0.0539467485 -1.0980785493 1.2381292188
C -0.9466898526 -0.0667989326 2.0119979590
N -1.9158416329 -0.1505137593 0.9137044502
C -1.1669316829 -1.0440956434 0.1606051857
O -1.3836451146 -1.5914138305 -0.8954745710
C -3.3193636811 -0.1874508314 1.2468751618
C -3.4263145400 -1.0155844892 2.5814895325
S -1.8648684331 -0.5676611104 3.5272526405
C -4.6350279447 -0.6560278544 3.4386526869
C -3.4338495383 -2.5059707457 2.2424096394
C -3.8612933853 1.2267595168 1.3913093250
O -3.2075524494 2.1786165437 1.7558481968
O -5.1652700559 1.2796147132 1.0766501808
H 3.1375473198 0.4759242598 2.6222275475
H 4.8069070267 1.0992392531 2.6014383030
H 4.5027471076 -0.6358872913 2.4035427586
H 1.7788112336 -0.8432869877 -2.4898671875
H 0.8055623709 -0.7683164077 -4.7574084762
H 1.5194673646 0.9849446183 -6.3632466639
H 3.2150610464 2.6656482205 -5.6845523876
H 4.1794842586 2.6023536102 -3.4036925286
H 2.0333406593 -1.3937910281 1.2078934097
H -0.0786039539 -2.0742983854 1.7298901890
H -0.4948228616 0.9171841370 2.1563698820
H -3.8730325809 -0.7078395075 0.4589042407
H -4.6319619198 -1.2568772615 4.3523723973
H -5.5536881962 -0.8829098546 2.8883183571
H -4.6410482345 0.4000191915 3.7213068850
H -2.5934011557 -2.7858462590 1.6013808891
H -3.3739228197 -3.0975550860 3.1594188601
H -4.3653872866 -2.7579916577 1.7225506264
H -5.4856509020 2.1872484150 1.2246735782
