45
CONF49
C -4.8412861069 -1.8055472263 0.3214825576
C -3.8911399453 -1.6720334185 -0.8245373158
C -3.3750576864 -0.5150232400 -1.2543121552
C -2.4600743606 -0.4285913167 -2.4021161943
C -1.1830727852 0.4571633886 -2.3811494660
C -2.3601902992 0.7698975673 -3.3015862973
C -3.2242940374 1.9869493239 -3.0657704060
C -2.0966985637 0.4970633440 -4.7679778688
C -0.8519481179 1.2559201035 -1.1949332930
O -1.6165106539 1.8431556783 -0.4549714658
O 0.5056121241 1.2459616919 -1.0116843718
C 1.0207870305 1.9223147725 0.1637398753
C 1.8802381559 0.9532913753 0.9159863224
C 1.3112334580 -0.1354921315 1.5719720831
C 2.0839339898 -1.0595677367 2.2538154903
C 3.4704532746 -0.9482212751 2.3194852750
C 4.0364761953 0.1399414780 1.6679632020
C 3.2634448420 1.0647957958 0.9766251161
F 3.8838902995 2.0880939645 0.3625417332
F 5.3705410287 0.3189806519 1.6944699428
C 4.2862822349 -1.9415838744 3.1137315265
O 4.1594808560 -1.7315103184 4.5181487297
C 4.8037472337 -0.5318315551 4.9532675092
F 1.4730537509 -2.0882547104 2.8671818425
F -0.0234903961 -0.2972999581 1.5340080513
H -5.7864076861 -2.2593978658 -0.0011757752
H -5.0606915051 -0.8338993246 0.7733520140
H -4.4299171306 -2.4634109449 1.0969578253
H -3.6118334864 -2.5949490507 -1.3354279639
H -3.6424483472 0.4057660011 -0.7435010289
H -2.2705341550 -1.3844344139 -2.8868729774
H -0.3187067774 0.0138758300 -2.8631136450
H -3.3876268253 2.1975351978 -2.0101459308
H -4.1962336238 1.8355938562 -3.5483721701
H -2.7562341721 2.8669752905 -3.5202786232
H -3.0447863201 0.3374342054 -5.2936453824
H -1.4740396664 -0.3915407086 -4.9052906095
H -1.5894297121 1.3506428851 -5.2311948481
H 1.6031693242 2.7804104853 -0.1744182417
H 0.1869012666 2.2648984247 0.7810194453
H 5.3380717251 -1.8867677348 2.8055142797
H 3.9146033752 -2.9512758464 2.9232743320
H 4.6966528071 -0.4941203242 6.0390172759
H 5.8706202454 -0.5423708113 4.6891061989
H 4.3334599308 0.3604621785 4.5164825023
