44
CONF6
C -2.3444230999 0.8201101487 3.4103467139
C -3.0119429852 0.4583463857 2.1004377277
C -3.4642556190 1.6660568911 1.3019600442
O -1.9916067915 -0.2713418907 1.3277888074
C -2.4201375316 -1.1089854302 0.3749516528
O -3.5815894326 -1.3751702851 0.1494398613
C -1.2449086718 -1.8066094295 -0.3100696428
C -1.6628669477 -2.5800629830 -1.5537785376
N -0.1422524023 -0.8644166474 -0.5781148058
C 1.1882209140 -1.3487974143 -0.4260254693
C 2.0223002681 -1.4379857762 -1.5401177299
C 3.3230643702 -1.8980246733 -1.3847416704
C 3.7683109505 -2.2956513519 -0.1281614225
C 2.9356648066 -2.2366568546 0.9769079396
C 1.6417451992 -1.7556312212 0.8292854474
F 5.0262292085 -2.7500249988 0.0192695574
Cl 4.3939189801 -1.9994898089 -2.7569897981
C -0.4525260614 0.3196078656 -1.1967593013
O -1.6062605695 0.5625066970 -1.5584916409
C 0.6292281406 1.3364270560 -1.3573851092
C 0.7199456799 2.0231647839 -2.5703522521
C 1.6743652683 3.0207942944 -2.7351011716
C 2.5205581535 3.3583974812 -1.6801759189
C 2.4109781104 2.6950142329 -0.4593700350
C 1.4751290279 1.6789162944 -0.2985882530
H -1.4820538154 1.4711147101 3.2343328364
H -3.0578746450 1.3540473501 4.0444992278
H -2.0115265733 -0.0763141751 3.9405654575
H -3.8471343558 -0.2291787241 2.2657761162
H -3.9098507040 1.3649637915 0.3510742191
H -4.2117729790 2.2215923427 1.8764564281
H -2.6149094005 2.3275911731 1.1028452012
H -0.8644701204 -2.5148827178 0.4368314145
H -0.7899108490 -3.0870407228 -1.9744147361
H -2.0881638090 -1.9099741499 -2.3030872004
H -2.4086621081 -3.3324738128 -1.2889933808
H 1.6637953731 -1.1459727432 -2.5205070346
H 3.3153892030 -2.5516471024 1.9427078579
H 0.9901348263 -1.6781879341 1.6933195453
H 0.0468459806 1.7627639689 -3.3809414356
H 1.7552539704 3.5390648909 -3.6852586092
H 3.2603384445 4.1424884230 -1.8071305974
H 3.0563475950 2.9685774478 0.3692796603
H 1.3913333079 1.1629746185 0.6523486452
