50
CONF302
C -3.0792450257 -2.1769941580 -2.4760278133
C -1.8292338524 -2.7618632879 -1.8620412643
C -0.5632284067 -1.9478409460 -1.7471227677
C -1.3689009016 -2.3279769283 -0.4767702537
C -2.0375677507 -1.2739700199 0.2951421972
O -2.5488782613 -0.2531916413 -0.1114395301
O -1.9997425083 -1.5908392072 1.6311862642
C -2.4490275476 -0.5535731956 2.5324791772
C -3.8738766962 -0.2715507948 2.3344507433
N -5.0093372226 -0.0833522295 2.2442483255
C -1.5654673389 0.6809800756 2.4753786428
C -0.1904470137 0.4840704096 2.3559280312
C 0.6510978151 1.5876979985 2.3095042422
C 0.1477178849 2.8844987594 2.4042018223
C -1.2238048750 3.0615701347 2.5334563610
C -2.0871406225 1.9677261126 2.5645504586
O 2.0062313059 1.3317992479 2.2447132876
C 2.7951193028 2.1091798965 1.4108266183
C 2.3485394457 2.5398084057 0.1640131361
C 3.2178147115 3.2581595885 -0.6516063602
C 4.5176618641 3.5360239424 -0.2335137271
C 4.9499452000 3.0881759059 1.0134655835
C 4.0902641626 2.3752867397 1.8442598150
C -0.5028823080 -0.5606691629 -2.2124331778
C 0.6186911910 0.1101364000 -2.4947448154
C 2.0061375277 -0.4605406778 -2.3080816499
F 2.9841007479 0.4365996650 -2.5070204366
F 2.2356435707 -1.4949649726 -3.1616914695
F 2.1639954487 -0.9547608170 -1.0531193531
Cl 0.5518707237 1.7318778982 -3.1456056243
C -1.6411915466 -4.2343739077 -2.1579322248
H -3.2498682310 -1.1359879825 -2.2055181713
H -3.0160973203 -2.2536184361 -3.5665419794
H -3.9471123735 -2.7566585589 -2.1454767178
H 0.3564669652 -2.5183688817 -1.8146756071
H -0.9039841634 -3.0962605140 0.1310146583
H -2.3583046111 -1.0245127847 3.5188884156
H 0.2347525091 -0.5111424154 2.2820259407
H 0.8200489034 3.7350703106 2.3746915774
H -1.6279630554 4.0659099619 2.6066933521
H -3.1572246067 2.1252051945 2.6476394931
H 1.3400670244 2.3126043716 -0.1658905567
H 2.8755178498 3.5897675134 -1.6268593184
H 5.1898071633 4.0944707399 -0.8764505411
H 5.9612292596 3.2976274367 1.3478802089
H 4.4095984379 2.0222812825 2.8192382787
H -1.4398208121 -0.0388314730 -2.3675015863
H -1.5849253689 -4.3892872966 -3.2405690850
H -0.7256609075 -4.6232410295 -1.7040680407
H -2.4913858145 -4.8071562678 -1.7731745804
