50
CONF79
C -3.4111657653 -1.6170010115 -2.2843837752
C -2.4465311532 -2.7765133805 -2.3764983063
C -0.9664827707 -2.5572041590 -2.2529001316
C -1.7225491744 -3.2833413244 -1.1235073598
C -1.9235167329 -2.7336589635 0.2255485752
O -2.2192267479 -3.3988524878 1.1976231939
O -1.7284962143 -1.3859190130 0.2900665016
C -1.8388257657 -0.7802992337 1.6063229453
C -3.2543959121 -0.6591240328 1.9652110573
N -4.3697989324 -0.5611199895 2.2467926105
C -1.1288370850 0.5475630230 1.5256208682
C 0.2185174496 0.5819929317 1.8656717173
C 0.9337300415 1.7676052376 1.7053985667
C 0.3061383510 2.9169729066 1.2266930466
C -1.0460222313 2.8630983099 0.8977020660
C -1.7719533411 1.6860351873 1.0376795112
O 2.2683260995 1.7009061573 2.0211045303
C 3.0178028423 2.8758085989 1.9772980768
C 2.9534211071 3.7712587826 3.0381300104
C 3.7566975311 4.9079070334 3.0064398335
C 4.6105150776 5.1360025070 1.9281220052
C 4.6624555140 4.2241381951 0.8761500497
C 3.8607043962 3.0845141649 0.8939839610
C -0.4081563402 -1.1989071440 -2.0994836047
C 0.8525408639 -0.8643684655 -1.8191471757
C 1.9861520693 -1.7771961291 -1.4524774853
F 2.5247956843 -1.4398882062 -0.2540487246
F 2.9945226325 -1.7257479695 -2.3582868457
F 1.5932846277 -3.0624450728 -1.3611033660
Cl 1.3440834824 0.8207909139 -1.7992060373
C -2.8980553133 -3.8624687011 -3.3291667480
H -4.3978880475 -1.9858405100 -1.9864841942
H -3.1081043130 -0.8524673214 -1.5688664671
H -3.5096918012 -1.1492193224 -3.2700784479
H -0.3424666986 -3.2454780974 -2.8148322755
H -1.5711697994 -4.3570330850 -1.0847008371
H -1.3621969940 -1.4359915699 2.3431291521
H 0.7271875512 -0.3025618786 2.2358597636
H 0.8634472355 3.8382681733 1.1033309719
H -1.5340241125 3.7560757462 0.5208619591
H -2.8233797108 1.6534414132 0.7707105991
H 2.2838111465 3.5748074814 3.8694750176
H 3.7177962914 5.6142415540 3.8296071173
H 5.2365238022 6.0221365614 1.9097782773
H 5.3280759871 4.3971231186 0.0364834512
H 3.8833804039 2.3612553863 0.0852668869
H -1.0858544290 -0.3681901470 -2.2763671452
H -2.1721417776 -4.6784277848 -3.3822684190
H -3.8608043244 -4.2736218806 -3.0083791319
H -3.0221747957 -3.4440560920 -4.3338758447
