45
CONF99
C -3.7869662799 4.0623106575 2.0916514765
O -4.2808018595 2.9409488531 1.3310673783
N -3.2651074427 2.4369947211 0.5471571422
C -3.6325816047 1.4156314701 -0.1631805279
C -4.9277204450 0.7907566062 -0.1927027672
C -6.1712436173 1.0993893085 0.3112554651
C -7.0309619949 0.0233575693 -0.0326551945
C -6.2680241443 -0.8795517112 -0.7112760307
O -4.9907895930 -0.4361220472 -0.8218895401
C -2.5534951946 0.9114525672 -1.0922667333
O -2.7899937227 0.6541743682 -2.2684774626
N -1.3255311348 0.8016837019 -0.5200737192
C -0.1641877277 0.4553720629 -1.2739094165
C 0.6820489212 -0.7716489939 -0.8223110486
N 1.8151646861 0.1392851167 -0.6349701764
C 1.1259796994 1.2783103556 -1.0341173930
O 1.4561288741 2.4318167738 -1.1613689965
C 3.1656839689 -0.2090309766 -0.6112144171
C 3.5633256223 -1.4668759267 -0.9009208918
C 2.6051432910 -2.5674504177 -1.2739483295
S 1.0622311714 -2.0110147580 -2.1104564746
C 4.9910611065 -1.9185006399 -0.7932362721
O 5.0825795430 -3.0492891831 0.1172231359
C 5.0558017251 -2.7171992691 1.4432034106
O 5.0451140331 -1.5657537435 1.8551664671
N 5.0212517343 -3.8275651263 2.2101764047
C 4.1031811738 0.8674097182 -0.1714965364
O 5.1870127444 1.0881228688 -0.6696552465
O 3.5954689951 1.5564643912 0.8635181786
H -2.9710749937 3.7469094095 2.7488785914
H -3.4504759033 4.8577640131 1.4201629507
H -4.6386100315 4.4021324229 2.6826760183
H -6.4342923150 1.9915830588 0.8537169087
H -8.0820566304 -0.0696533818 0.1964543985
H -6.4728351689 -1.8401549955 -1.1590292187
H -1.2287806784 1.0303703742 0.4598470043
H -0.4200416309 0.4247422421 -2.3379577073
H 0.3614626034 -1.2502876158 0.1077842885
H 3.0953914224 -3.2514348879 -1.9741055789
H 2.3354292551 -3.1541308822 -0.3873440670
H 5.3264086907 -2.3226439980 -1.7525175277
H 5.6666374084 -1.1295591037 -0.4719264911
H 5.1543886946 -3.7218710709 3.2022094557
H 5.1620271524 -4.7359343184 1.7982899205
H 4.2266489139 2.2576588141 1.1025689634
