52
CONF3
C 1.2770183685 0.6626784515 -1.6469448538
C 1.5536149946 0.2230356598 -0.2027757710
C 1.0575073813 1.2588803722 0.8262113353
C -0.3180814872 0.9326576085 1.3967747198
O -0.6319774320 1.2784250972 2.5221128767
C -1.2201158224 0.1800092200 0.4410190948
C -0.6050205637 -1.2191629665 0.1446703247
C 0.9363454038 -1.1493209479 0.1601499801
C 1.7377934803 -2.1609472809 -0.6596867888
C 3.1641836431 -1.5559385264 -0.7133302112
C 3.0815683633 -0.1564535319 -0.0594941874
C 3.9979000464 0.8718574003 -0.7103442893
O 4.3027816154 0.8375951070 -1.8923544097
C 4.5218930340 1.9972660105 0.1541036439
O 5.2280548027 2.9502513769 -0.6123776166
O 3.3704109966 -0.2102608845 1.3438068072
C -1.2815415131 -1.8025464338 -1.0934515880
C -2.8018647756 -1.8938750570 -0.8522590026
C -3.3709365063 -0.5686324251 -0.4416348530
C -4.3455451447 0.0244072716 -1.1596979910
C -4.8683460025 1.3500142858 -0.8510576292
O -5.7788510320 1.8648576081 -1.5168378414
C -4.2484717098 2.0502454542 0.2748419442
C -3.2778013844 1.4809167254 1.0018464451
C -2.7475721464 0.0990578404 0.7660590662
C -3.0594906943 -0.7198165207 2.0467897158
H 0.2089994149 0.7851572979 -1.8294836764
H 1.6574265873 -0.0573754614 -2.3751020855
H 1.7511333569 1.6272483243 -1.8511116187
H 1.7372425578 1.3473903926 1.6760481453
H 0.9699650546 2.2552455740 0.3690406802
H -1.1552610175 0.7550266036 -0.4927693800
H -0.8754940628 -1.8727012992 0.9826522012
H 1.2224591626 -1.2933127513 1.2104514828
H 1.3310273066 -2.2584746105 -1.6702194300
H 1.7256799772 -3.1558218203 -0.2061890490
H 3.8958577534 -2.1621427159 -0.1704647598
H 3.5208256086 -1.4628177644 -1.7410641879
H 3.6741089108 2.4654599894 0.6772653729
H 5.1658216024 1.5636892907 0.9338652685
H 5.2572952574 2.5920475516 -1.5166167398
H 4.1829354853 -0.7193939019 1.4599734216
H -0.8964773840 -2.8063910215 -1.2994840302
H -1.0852807231 -1.1838471820 -1.9775369301
H -2.9804891268 -2.6340557461 -0.0604969103
H -3.3129506154 -2.2497649821 -1.7510593009
H -4.7706877096 -0.4730712162 -2.0284389065
H -4.6174363019 3.0469756677 0.5005913335
H -2.8477797735 2.0094460703 1.8477860511
H -2.6022711597 -0.2400454091 2.9136149766
H -2.6872375739 -1.7429989617 1.9753778001
H -4.1428685877 -0.7606731508 2.1912481220
