94
CONF43
C 9.0745724868 -1.2175320575 -4.7451839742
C 8.0414028688 -1.6268203853 -3.7135833110
C 6.9072643362 -2.4661660897 -4.3104311432
C 5.8824552551 -2.8342501763 -3.2897891266
C 4.6497202827 -2.2936154959 -3.2261218719
C 3.6979828051 -2.5861386188 -2.1921840233
C 2.4782367849 -1.9961619240 -2.0797884356
C 1.5651543852 -2.2825214096 -1.0177703406
C 0.3556289756 -1.6866566885 -0.8448775501
C -0.4993442114 -1.9685922334 0.2735885417
C -1.6500204645 -1.3247537011 0.5462271841
C -2.3936686289 -1.5172751919 1.8331762267
C -1.9395001958 -0.5179107885 2.8988585037
C -2.1185080556 0.9422839418 2.4693766332
C -2.9345889893 1.7664771573 3.4973745398
C -2.8919129170 3.2481679310 3.1428251696
C -1.4500516881 3.7054459402 2.9383923540
C -0.7782383529 2.8522734752 1.8628891244
O -0.8047581209 1.4819012233 2.2944970374
C 0.7060249279 3.1731754138 1.6693450202
C 1.3947964645 2.2923362034 0.6317995228
C 2.9047745204 2.5293713307 0.5984005225
C 3.5659027689 1.7674504617 -0.5173175325
C 4.8696183238 2.1937765478 -1.0655057340
O 3.6347873809 2.4276727761 -1.7943739053
C 5.7647512757 1.2194950467 -1.6912248228
C 7.0986651231 1.2437935675 -1.5710803589
C 7.9704399185 0.2066837723 -2.1493189349
O 9.0920735302 -0.0377148196 -1.7347536231
O 7.3815693727 -0.4390121484 -3.1713945128
O 0.7989573885 2.6080495369 -0.6543547199
O -1.5146275740 3.0286645287 0.6666424379
O -3.5210270560 3.9450729792 4.2319668119
C -4.3357532804 1.1835874586 3.4795770155
O -4.7201406802 0.3613941189 4.3115148685
O -5.0472579016 1.5627053742 2.4396946206
O -3.8161377663 -1.3114610059 1.6862434583
C -4.5682854958 -2.4459385930 1.3130429993
C -5.9945261932 -2.2507431110 1.8369516378
C -6.7690277832 -1.1473902039 1.0450974844
C -6.0025354502 -0.7081820560 -0.2017454538
C -5.4385871824 -1.9314889526 -0.9282252892
O -4.5445754649 -2.6990627977 -0.0772753667
C -4.6660635241 -1.5689466275 -2.1803013289
O -6.8422178330 0.0648147359 -1.0651825214
N -7.0696067491 0.0301458115 1.8857324945
O -6.0096596235 -2.0653439496 3.2412575819
H 8.5994598121 -0.6587759170 -5.5576138989
H 9.5441466977 -2.1116798098 -5.1662430291
H 9.8521007557 -0.5981268097 -4.2923406853
H 8.5124004494 -2.1564813030 -2.8782470799
H 7.3686325019 -3.3650360518 -4.7391471399
H 6.4483787826 -1.9011281864 -5.1302338312
H 6.1870866659 -3.5451788600 -2.5204375831
H 4.3506847125 -1.5704102633 -3.9864431530
H 3.9944074595 -3.3184588475 -1.4401290880
H 2.1758831838 -1.2569079635 -2.8227586332
H 1.8834114520 -3.0257449421 -0.2852637072
H 0.0214858907 -0.9340419613 -1.5600733550
H -0.1503413816 -2.7331295396 0.9704390411
H -2.0178864678 -0.5504772007 -0.1255761616
H -2.2159681378 -2.5331392842 2.2160897083
H -2.5007415889 -0.7241175863 3.8155082985
H -0.8801233056 -0.6896071883 3.1098428291
H -2.6522103596 1.0021851999 1.5129572232
H -2.5058978245 1.6178458156 4.4954493623
H -3.4603208252 3.4114728565 2.2202174688
H -0.8950083651 3.5956903458 3.8765773216
H -1.4286365717 4.7587812369 2.6380547866
H 0.8022534408 4.2246953447 1.3740940298
H 1.2156556747 3.0468301071 2.6298254279
H 1.2010718667 1.2348532702 0.8589275900
H 3.3294742470 2.1975349439 1.5544939208
H 3.1191070188 3.5983400963 0.4830350315
H 3.3207757372 0.7033553442 -0.5898224765
H 5.3223587163 3.0920328559 -0.6446164703
H 5.2817716243 0.4333586387 -2.2683203379
H 7.6031305062 1.9940451806 -0.9684512923
H 1.0201537783 1.9043305198 -1.2783493356
H -0.9175015597 2.7820035721 -0.0662584460
H -3.5987028779 4.8738681385 3.9794084542
H -5.8875221610 0.9188813852 2.2872670005
H -4.1292661483 -3.3429942518 1.7712995161
H -6.5077313086 -3.2011925153 1.6581320335
H -7.7088326721 -1.6030592232 0.6944248907
H -5.1803149569 -0.0407700212 0.0783483944
H -6.2859484320 -2.5883982276 -1.1911945781
H -3.8569982241 -0.8719996687 -1.9380001165
H -4.2335434866 -2.4696806916 -2.6247243616
H -5.3272923409 -1.1015130868 -2.9140102790
H -7.5724519621 -0.4995719063 -1.3567419748
H -7.7021837811 0.6348731556 1.3667095018
H -7.5716007057 -0.2696381973 2.7177283362
H -5.4809637440 -1.2747798049 3.4634787570
