44
CONF189
C 4.7417503420 -0.5318010240 -1.5526646425
C 3.5762732644 0.4036392733 -1.2278983649
C 3.3602083854 0.5690052931 0.3259777117
N 2.4343327816 -0.4663667208 0.7523459796
C 1.8994315687 -1.3762534175 -0.2829406945
S 1.9718951272 -0.3753005263 -1.8167576702
C 0.5394803048 -1.3735104392 0.4838111834
C 1.1786672773 -0.2169575331 1.2941632297
O 0.7833673444 0.6454917866 2.0406634466
N -0.6695283019 -1.0800072117 -0.2126165880
C -1.7887627618 -1.8466676153 -0.0957972826
O -1.8210834131 -2.9028685506 0.5301598879
C -3.0375206615 -1.2549249238 -0.7592068949
C -3.6566773853 -0.2743481447 0.2315578026
C -4.2971905681 -0.7301077733 1.3885715393
C -4.8471407302 0.1600530728 2.3005164260
C -4.7598014870 1.5347309809 2.0654633983
C -4.1220854910 2.0077568710 0.9182110847
C -3.5755938639 1.1014853638 0.0138877640
O -5.3219180675 2.3664367492 2.9919090424
N -3.8969356760 -2.3597465282 -1.1870044344
C 4.6800770830 0.4929468843 1.0809644889
O 5.3579581329 1.6460879997 0.9485831575
O 5.0784062318 -0.4649128063 1.7023021086
C 3.7487179624 1.7523903551 -1.9163217864
H 4.6403208439 -1.5033740208 -1.0610825137
H 5.6879216148 -0.0791029949 -1.2330887747
H 4.7926627879 -0.6898173539 -2.6322144732
H 2.9103077748 1.5501517579 0.5222764845
H 2.4180292664 -2.3322431957 -0.3799525833
H -0.7217116332 -0.2159326149 -0.7348663629
H -2.7269278810 -0.6839390600 -1.6430726416
H -4.3725601324 -1.7964443102 1.5825526630
H -5.3462719379 -0.1958574832 3.1962717085
H -4.0606512433 3.0768448448 0.7320209810
H -3.0814491097 1.4761442383 -0.8790105855
H -5.1986784564 3.2856107550 2.7182531825
H -4.0149025015 -3.0002223316 -0.4067979362
H -4.8186182517 -1.9907879524 -1.3996543315
H 3.8246564286 1.6158675006 -2.9987525483
H 2.9113439230 2.4201424533 -1.6974715417
H 4.6749335902 2.2203238023 -1.5700607112
H 0.4013146259 -2.2821327562 1.0760642291
H 6.2148520889 1.5577306050 1.4021389232
