44
CONF27
C -4.4941349190 1.1417317530 3.2850309825
C -3.4754297518 0.4236529951 2.4359410241
C -3.9840211500 -0.7920358526 1.6829990166
O -3.0969967155 -0.8691346422 0.5535054762
C -2.5952725499 0.4458991567 0.2999040615
O -3.0845276522 1.2786093846 1.3327581581
C -3.1407576915 1.0218409426 -1.0242872594
N -4.5891735928 0.9803451915 -1.0629699859
C -5.4666413207 1.8519526501 -0.5244575015
N -6.7085377631 1.4109565125 -0.6815349167
C -6.5236251329 0.2264452845 -1.3318964072
N -5.2578565157 -0.0793656958 -1.5848739838
C -1.0674020128 0.4183936896 0.2802384236
C -0.3062754656 -0.4625984358 -0.4952316761
C 1.0833330347 -0.4526033612 -0.4865021535
C 1.7420473237 0.4667593231 0.3250284995
C 1.0234497302 1.3698233330 1.1007894161
C -0.3621520898 1.3383940985 1.0617700270
O 3.1130066487 0.5789245831 0.3498155399
C 3.8894263765 -0.5362340509 0.0733409364
C 3.6959134589 -1.7366969959 0.7514879643
C 4.5451409383 -2.8075905680 0.4984749751
C 5.5768237626 -2.6505837537 -0.4212011941
C 5.7806673640 -1.4512218328 -1.0920484133
C 4.9225406698 -0.3844131580 -0.8426674720
Cl 6.6530634864 -4.0061717397 -0.7398277682
Cl -1.0589915587 -1.6515037034 -1.5563062937
H -5.3624624718 1.4222339909 2.6808248148
H -4.8255162280 0.4838535498 4.0940867718
H -4.0619843481 2.0414123396 3.7307974401
H -2.5796095227 0.1633274531 3.0196481458
H -3.8995663705 -1.7239138043 2.2470089751
H -5.0220204387 -0.6436044624 1.3504698536
H -2.8134114147 2.0625412241 -1.1033607417
H -2.7572056492 0.4592682431 -1.8758203048
H -5.1578407677 2.7730876402 -0.0492069282
H -7.3364697263 -0.4213012124 -1.6354108540
H 1.6377529517 -1.1462189596 -1.1070751333
H 1.5506631493 2.0852257619 1.7219887471
H -0.9280401397 2.0368493067 1.6668055862
H 2.8910793566 -1.8360680577 1.4721769279
H 4.4089685679 -3.7483766078 1.0193388558
H 6.5912889765 -1.3475111407 -1.8040497315
H 5.0541029787 0.5628586757 -1.3541168252
