51
CONF31
C 0.0665903791 -1.0224574683 2.0271335965
C 0.7209150900 0.3532421223 2.0855421505
N 0.4102850367 1.1286956904 0.8777561325
C -1.0390385695 1.3232285329 0.7626902151
C -1.7652749161 -0.0123093659 0.6559321307
C -1.4475325251 -0.8868921757 1.8873961356
C -2.1432151049 -2.2268256969 1.7606943960
O -1.5157020837 -3.2404305609 1.4741060904
C -3.6244700891 -2.2921492898 1.9407135540
C -4.3737191812 -1.2347572334 2.4752311197
C -5.7493087857 -1.3459133060 2.6355197606
C -6.3598341211 -2.5269771703 2.2465825894
C -5.6590431336 -3.5976183549 1.7104452031
C -4.2866574089 -3.4699312155 1.5644040011
F -7.6986595228 -2.6416587805 2.3960492997
C 1.1236274079 2.4049870262 0.8746692874
C 1.2318788825 3.0254564442 -0.5188984759
N 1.9441526979 2.1379860146 -1.4528525176
C 3.3389104544 2.0823739795 -1.3512496824
O 3.9347589307 2.7999858165 -0.5526382971
C 4.0092357936 1.1335137681 -2.2404797954
C 5.4026124796 1.0006750463 -2.2218452411
C 6.0283390216 0.0953725029 -3.0605640109
C 5.2598185516 -0.6907083920 -3.9291830357
C 3.8800970724 -0.5761420722 -3.9626225087
C 3.2509934065 0.3415563933 -3.1130659663
N 1.8802296093 0.4911112177 -3.1179082186
C 1.1753593045 1.3702737746 -2.3337976414
O -0.0426141885 1.4732706099 -2.4219694983
H 0.4642096382 -1.5788598758 1.1715065938
H 0.3158303260 -1.5874560527 2.9320209048
H 1.8091527647 0.2423850038 2.1544622266
H 0.3840156313 0.8849458883 2.9997756129
H -1.2484401790 1.9148671885 -0.1330960213
H -1.4302360903 1.8824897648 1.6380441047
H -1.4363431496 -0.5368614220 -0.2503000433
H -2.8416047370 0.1662060627 0.5666962120
H -3.8932897539 -0.3130176993 2.7819240894
H -6.3405884844 -0.5389146862 3.0535767705
H -6.1844966649 -4.5000692008 1.4179722186
H -3.7067129958 -4.2866918920 1.1493196466
H 0.6480166994 3.1523970234 1.5395620036
H 2.1360060717 2.2343672942 1.2551126788
H 1.7915044424 3.9610661027 -0.4500678815
H 0.2526668326 3.2322020197 -0.9496724845
H 7.1077641855 -0.0069781132 -3.0465855883
H 5.7479765847 -1.4018303665 -4.5880232286
H 3.2841043647 -1.1847817461 -4.6353831376
H 1.3213041714 -0.0579486612 -3.7561996139
H -1.8359573450 -0.3680901920 2.7743585779
H 5.9717221637 1.6212752490 -1.5384960165
