18
CONF1
C 3.9534987505 0.6735098988 -0.0003526290
O 3.0794488367 -0.4727592032 0.0001158342
C 1.7508182684 -0.2614720889 0.0002959999
C 0.9533361691 -1.4202390934 0.0003353151
C -0.4203549486 -1.3159694800 0.0002268117
C -1.0058761577 -0.0458956376 0.0002673343
C -0.2289972854 1.1103955803 0.0003852779
C 1.1519979040 1.0080900402 0.0004978345
N -2.4510795287 0.0698789310 -0.0004784299
O -3.1215595651 -0.9658541585 -0.0010290609
O -2.9510156686 1.1977003003 -0.0006665149
H 3.7948725980 1.2787098864 0.8979737774
H 4.9637679367 0.2661629583 -0.0008765680
H 3.7939167390 1.2786503141 -0.8985533168
H 1.4376604364 -2.3905851160 0.0003794875
H -1.0416914830 -2.2025363673 0.0002205049
H -0.7034558933 2.0836139672 0.0005389841
H 1.7493011922 1.9105756562 0.0007096353
