76
CONF1
C -0.5205897426 -1.2584239336 -1.9483666548
C -1.7074906656 -1.2376851307 -0.9975586088
C -2.9481674958 -1.7676363946 -1.6641893306
C -4.0527739842 -2.2054938390 -1.0425731800
C -5.1930447664 -2.7518726074 -1.8621231808
O -6.3599781766 -1.9076496510 -1.8026439515
C -4.3309702858 -2.1510692801 0.4418276976
C -3.5404411091 -1.1269385628 1.2662590243
O -2.3459808797 -1.6807119662 1.8544684019
C -4.3465831665 -0.5780877082 2.4688193191
O -4.9375768807 -1.2861431207 3.2730960524
C -4.2235074316 0.8802844974 2.4914416142
C -4.8103144858 1.7152576524 3.5760213694
C -3.5520797192 1.2711946966 1.3897186045
C -3.1987055132 0.1416515434 0.4687700152
C -1.8703731152 0.1627792471 -0.3198427355
O -2.0775353397 1.2025468862 -1.2796293177
C -0.5772232686 0.4217151331 0.5034164730
C -0.6039609455 1.6813283740 1.3700280700
C 0.6398164410 0.5245306147 -0.4377903286
O 1.8323788026 0.3306323947 0.3763363130
C 2.8575960731 1.2065073249 0.2242660476
O 2.8072576694 2.1435332272 -0.5696360930
C 3.9901094521 0.9007254383 1.1011606686
C 3.9252847544 -0.1944058510 1.9810199277
C 4.9716163508 -0.5187881407 2.8236328124
C 6.1278210604 0.2701230365 2.7963301359
C 6.2327778265 1.3548518178 1.9480198731
C 5.1746775786 1.7093049203 1.0750404348
N 5.2965087206 2.7767944736 0.2517503853
C 6.4699992511 3.6265254581 0.1917610621
C 0.6826173341 -0.4099882596 -1.6206037727
O 1.4598870087 0.1406538174 -2.7031978544
C 0.9483636875 1.1544368927 -3.4232110730
C 1.9232745821 1.6421437805 -4.4460987301
O -0.1631285577 1.6235917782 -3.2438286642
C 0.7957741047 -1.9107634714 -1.5495608840
C 0.9585772774 -2.6126681338 -0.2192740549
C 1.5669441517 -2.6017537899 -2.6580389767
H -0.7596526143 -1.3214582258 -3.0075699911
H -1.4893779492 -1.9137265182 -0.1667566506
H -2.9280563218 -1.8317070538 -2.7517938977
H -4.8735227251 -2.8982888332 -2.9025482352
H -5.5211593167 -3.7189122299 -1.4624485681
H -6.0962484220 -1.0388133680 -2.1329253443
H -5.3981610246 -1.9158421805 0.5512264874
H -4.2075466469 -3.1480976146 0.8883569276
H -2.6315223873 -2.3761247784 2.4648881391
H -4.6422565451 2.7783554585 3.3907139531
H -5.8879981522 1.5367497124 3.6586149229
H -4.3702435755 1.4518928865 4.5442589328
H -3.3609520140 2.3057186776 1.1244613907
H -3.9355407485 0.1953027151 -0.3463390304
H -1.3417314896 1.2193704402 -1.9227069786
H -0.4393049431 -0.4398814419 1.1598982735
H -0.9125646873 2.5532395736 0.7847713849
H 0.3939010522 1.8768920299 1.7753250057
H -1.2819395303 1.5655753431 2.2183134043
H 0.6730125885 1.5447187199 -0.8312857554
H 3.0231996539 -0.7941575860 1.9906379438
H 4.8955730974 -1.3678752502 3.4934438671
H 6.9614187503 0.0319461708 3.4507039656
H 7.1403215584 1.9461066079 1.9505750565
H 4.5032204943 2.9805065435 -0.3393015633
H 7.3653996871 3.0672466847 -0.1104610454
H 6.2880167877 4.4071568676 -0.5488234047
H 6.6763651326 4.1085196065 1.1566209561
H 2.6663887473 2.2674156655 -3.9384065389
H 2.4516969236 0.8069683376 -4.9101111253
H 1.4051104122 2.2406260477 -5.1945026753
H 2.0245235803 -2.7343338312 -0.0005430560
H 0.5071758832 -3.6099267157 -0.2722778486
H 0.5119252584 -2.0824339208 0.6205802871
H 1.3693246540 -2.1644321936 -3.6380734316
H 2.6447424469 -2.5521473551 -2.4681453943
H 1.2756062958 -3.6571817647 -2.6869208560
