37
CONF8
C 3.2755054163 -0.9285517018 2.8923070272
C 3.8989492743 -0.8502789854 1.5150017371
C 5.0991180415 0.0741109754 1.4462370344
O 2.8416928743 -0.3208355889 0.6309416978
C 2.8947468897 -0.6584267576 -0.6643057436
O 3.7686771472 -1.3344574756 -1.1706159253
C 1.7058693925 -0.1315790223 -1.3973377365
C 1.7516068941 0.2870794868 -2.7341087734
C 0.6043423091 0.7084484058 -3.3931119984
C -0.5964877497 0.6931953458 -2.7076175976
C -0.7049742737 0.2994019345 -1.3729578080
C 0.4724559849 -0.0998417400 -0.7415956909
C -1.9837833426 0.2955366124 -0.6618212946
N -2.8173969100 1.3473940913 -0.7124308541
N -3.8738125168 1.0387697205 0.0438459214
C -3.7524616766 -0.1978414800 0.5974400633
C -2.5378238135 -0.7045402528 0.1573936866
Br -1.8448525912 -2.4145541183 0.5185870014
C -4.7525882491 -0.8703113218 1.4752066999
F -5.2699436351 -1.9744553239 0.8799387286
F -5.7865349560 -0.0707546348 1.7994982075
F -4.1855563819 -1.2863824791 2.6329609085
C -4.9524253777 2.0195936138 0.1797395744
F -1.7001767764 1.0634852256 -3.3800120197
Cl 3.2518676342 0.3726686077 -3.6263848132
H 2.3984787758 -1.5814263253 2.8878511804
H 4.0083047923 -1.3352740234 3.5950134310
H 2.9791218812 0.0666220543 3.2381173414
H 4.1575051028 -1.8475580820 1.1473052957
H 5.4936779217 0.1342071555 0.4288482886
H 5.8875878740 -0.3092156175 2.1007962094
H 4.8242542671 1.0778928876 1.7852126166
H 0.6332353161 1.0405136813 -4.4240020246
H 0.4327891082 -0.4001243316 0.2983137441
H -4.6835384527 2.8663963402 -0.4503495231
H -5.0410105497 2.3421950130 1.2190343647
H -5.8964200466 1.5888977188 -0.1592439500
