45
CONF14
C -1.8025719687 -1.1697754284 1.7602130178
C -1.9935658459 -1.1819250113 0.2780170745
C -1.8928089532 -0.1069560721 -0.5121422188
C -2.0839484955 -0.1609461623 -1.9690022115
C -1.0891404746 0.5634384726 -2.9331655693
C -2.5294175193 1.0108622317 -2.8044456380
C -2.8996647615 2.3271079954 -2.1579193657
C -3.3936161099 0.6767925267 -4.0044864240
C 0.0623068963 1.2304693604 -2.3107788714
O 0.0586218787 2.1133988223 -1.4757791305
O 1.2192560077 0.6517890197 -2.7532023726
C 2.4100715197 1.0045432072 -2.0022684540
C 2.3156017598 0.4598264287 -0.6039638596
C 2.3049698074 1.2776980455 0.5205687373
C 2.1215840771 0.7544718178 1.7922532222
C 1.9338168800 -0.6059512383 2.0076262888
C 1.9645853743 -1.4245627713 0.8845673787
C 2.1554408925 -0.9053113472 -0.3866147341
F 2.1685917537 -1.7482159997 -1.4342257936
F 1.8060562218 -2.7534301162 1.0191245943
C 1.7601927436 -1.1553688138 3.3916591003
O 3.0572218555 -1.2955825901 3.9733843899
C 2.9653503209 -1.8000666922 5.3069362497
F 2.1133894338 1.5967550025 2.8405922340
F 2.4651402556 2.6042552985 0.3914952328
H -1.5315194063 -0.1731695461 2.1215014727
H -1.0144654037 -1.8734127643 2.0566627471
H -2.7144830523 -1.4913079551 2.2786462206
H -2.2330609025 -2.1461078319 -0.1733191249
H -1.6464075238 0.8539560501 -0.0662384164
H -2.3716208764 -1.1411159881 -2.3435978435
H -0.8344843122 -0.0159725220 -3.8145361001
H -3.9524258273 2.2918466755 -1.8563210728
H -2.7846009051 3.1406359163 -2.8824606237
H -2.2921953433 2.5648944892 -1.2870594890
H -3.1096495986 -0.2817391044 -4.4483250413
H -3.2993223632 1.4544172381 -4.7705918655
H -4.4454841473 0.6192748468 -3.7037792757
H 3.2263824486 0.5333399371 -2.5521251854
H 2.5460987942 2.0866992854 -1.9878791979
H 1.2504709365 -2.1276551660 3.3508240772
H 1.1447411956 -0.4678363809 3.9901894562
H 2.4864599947 -2.7896575550 5.3217897687
H 3.9856935170 -1.8847111343 5.6858974260
H 2.3924100246 -1.1156947519 5.9489462853
