47
CONF163
C -3.0967523855 4.8759403124 2.0088618220
C -2.7686200425 3.7429899149 1.0593104562
C -2.8021562798 2.3214402599 1.5501637744
C -1.4453848413 3.0329351853 1.3446607304
C -0.4835306170 2.5321831261 0.3535272767
O 0.7226399043 2.6283047283 0.4609124879
O -1.0785959181 1.9062475614 -0.7042577925
C -0.1672280498 1.2736502690 -1.6327825149
C -0.9093825552 1.1599819053 -2.8890373527
N -1.4650139144 1.0424449336 -3.8943680331
C 0.2679769529 -0.0875919176 -1.1304457881
C -0.6877506245 -0.9915382619 -0.6647520021
C -0.2732531152 -2.2316419414 -0.1918099761
C 1.0742748748 -2.5822072868 -0.1924681675
C 2.0116255027 -1.6719097796 -0.6770278259
C 1.6176970208 -0.4194286447 -1.1426519617
O 3.3678943723 -1.9130807273 -0.6552265701
C 3.8234266360 -3.2190280505 -0.7880091675
C 3.3740017115 -4.0386289731 -1.8203500552
C 3.9199172031 -5.3116073403 -1.9542604049
C 4.9077032072 -5.7548378624 -1.0752616792
C 5.3514222372 -4.9162380573 -0.0553229572
C 4.8080030967 -3.6424827242 0.0966673890
C -3.1910256212 1.9476313933 2.9103110618
C -3.6146938549 0.7368249712 3.2761195841
Cl -4.0728599963 0.3660815568 4.9183498684
Cl -3.7608848527 -0.6165762426 2.1874746662
C -3.2249553131 4.0099510050 -0.3582704637
H -2.6963148621 5.8130422373 1.6090926566
H -2.6759792288 4.7304037801 3.0059388416
H -4.1832114204 4.9816284830 2.1002547699
H -3.0173105946 1.5866605570 0.7815198054
H -0.9431470739 3.3656402473 2.2467783652
H 0.7044055325 1.9158139396 -1.8022317190
H -1.7396171563 -0.7243448228 -0.6625102942
H -1.0054781763 -2.9375752068 0.1865407820
H 1.3927200740 -3.5484730685 0.1827563726
H 2.3658046437 0.2806285130 -1.5007099029
H 2.6117396755 -3.6832928111 -2.5062129346
H 3.5759050474 -5.9560669597 -2.7571729560
H 5.3306100496 -6.7476781165 -1.1876164483
H 6.1211925625 -5.2529598483 0.6318934237
H 5.1392399172 -2.9772766693 0.8872361490
H -3.1281941420 2.6949708449 3.6952178917
H -3.0832887039 3.1526962320 -1.0159267424
H -2.6827101616 4.8657237199 -0.7748942154
H -4.2908601279 4.2606499376 -0.3429644543
