60
CONF196
C 0.6059742604 -1.3980969586 0.5600949246
C -0.1737133630 -0.9438006530 -0.6720805565
C -1.6283619336 -0.6362942145 -0.3054420734
C -1.7110733945 0.1933660189 0.9481668622
C -0.6742740082 0.2874117198 1.8538529426
O -0.8041111184 0.8584602077 3.0355627956
C 0.7078315916 -0.2557071635 1.5738168904
O 1.2960892807 -0.6785106398 2.8006208493
C 1.6146470403 0.9000167289 1.0526824780
O 1.4084660803 2.0477837728 1.4517653187
C 2.6986882690 0.5497615257 0.1519779587
C 3.6272520070 1.5553330869 -0.3927638067
O 4.4952085139 1.2146158623 -1.2555486571
N 3.5593155553 2.8239320761 0.0241155554
C 4.4441813742 3.8401046833 -0.5279094911
O 4.1159046923 4.1979336211 -1.8617658047
C 2.8504716397 -0.7569820176 -0.3006532423
O 3.7388508577 -1.0775224848 -1.2006948764
C 2.0122238370 -1.9007299327 0.2052431063
N 2.6414031723 -2.5345090401 1.4077509008
C 2.1314829438 -3.9056012417 1.5776996546
C 4.1128019964 -2.5614100087 1.3802538118
C -2.9807645321 0.7408179280 1.2954116665
O -3.1922400455 1.2239621900 2.4630802212
C -4.0421878177 0.8164585516 0.2912698407
C -5.3118065389 1.3246039578 0.6868028252
O -5.6160794391 1.5913164390 1.9653171270
C -6.2945084337 1.5763314537 -0.2700101101
C -5.9860831144 1.4372491566 -1.6049180712
C -4.7285583791 0.9758622840 -1.9976679207
Cl -4.4415099042 1.0516378001 -3.7460675181
C -3.7573760788 0.5720853922 -1.0814009506
C -2.4238711177 -0.0695325864 -1.5119546315
C -2.6725335127 -1.2616619563 -2.4553740996
O -1.5964488955 0.9368012504 -2.1197149209
H 0.0541025645 -2.2133958705 1.0422336943
H 0.2853190331 -0.0514487425 -1.1077760155
H -0.1240952414 -1.7324283663 -1.4270425551
H -2.1234176535 -1.5911135210 -0.0702814448
H -1.7766197808 1.1315810600 3.0947256176
H 1.9284395132 -1.4075215587 2.5278895657
H 2.7933163853 3.0605633733 0.6498808526
H 4.3267576209 4.7383899868 0.0803675417
H 5.4773186525 3.4798104209 -0.4638064063
H 4.4025508933 3.4733580333 -2.4339383163
H 4.2384615868 -0.1610121019 -1.4036729278
H 1.9548115105 -2.6286189267 -0.6212796140
H 2.4469968659 -4.5603055644 0.7490597993
H 2.5203901203 -4.3111838357 2.5157974533
H 1.0406927167 -3.9102767237 1.6319422978
H 4.4577849793 -3.0537245621 2.2933219559
H 4.5147886932 -1.5447772259 1.3697675920
H 4.5077007349 -3.1120721757 0.5122642481
H -4.7603299815 1.5013528232 2.4714116513
H -7.2653944775 1.9396303252 0.0477051025
H -6.7166602188 1.7018552695 -2.3612551945
H -3.0064906131 -0.9533199281 -3.4422178419
H -1.7492799663 -1.8291916067 -2.5828770906
H -3.4283567090 -1.9240868150 -2.0232256361
H -2.0240784225 1.2224499209 -2.9385860146
