32
CONF7
N 4.8456333851 0.7506690507 1.0972205612
C 3.5682938493 0.3404496319 1.0728719611
C 2.6239907099 0.8473946346 0.1570710189
N 2.7198082627 1.7949837106 -0.8448416913
C 1.5083235421 1.8512646391 -1.3479080463
N 0.6170364972 0.9882008034 -0.7425399449
C -0.7785115213 0.8226251394 -1.1026923374
O -1.5818103857 1.0318084048 0.0429039112
C -2.7375863929 0.1333669442 0.0160265611
C -2.7281011176 -0.7307372892 1.2650942951
O -1.7006397371 -1.7129978035 1.2695210755
C -2.6395672312 -0.6366502975 -1.2992383484
O -3.3813262252 0.0716862264 -2.2922618517
C -1.1376031547 -0.5746394362 -1.6199939264
O -0.8434639549 -0.6489038752 -3.0076758078
C 1.3293860256 0.3323332658 0.2401285135
N 0.9070929716 -0.5946682361 1.1127335808
C 1.8886916534 -1.0006868531 1.9276670693
N 3.1625384775 -0.5975499934 1.9578949897
H 5.1692529726 1.4540148359 0.4548542992
H 5.4828529705 0.3685326793 1.7767376380
H 1.1898215856 2.4919097494 -2.1613656793
H -0.9849835600 1.5653213630 -1.8878124306
H -3.6430491327 0.7531836036 0.0160512351
H -3.6863247710 -1.2611350868 1.3198627568
H -2.6583621975 -0.0691533300 2.1421512806
H -0.8276702010 -1.2551675835 1.2747285840
H -2.9972913151 -1.6695422816 -1.1965629490
H -2.9990021881 -0.1728216006 -3.1487340664
H -0.6013342261 -1.3413395578 -1.0515196059
H -0.6980720312 -1.5752531803 -3.2372480507
H 1.6119767416 -1.7564978911 2.6617185184
