51
CONF38
C 1.1662582653 -3.3358223884 -1.2600434597
N 0.1890010468 -2.7561251842 -0.3418132604
C -0.4584165679 -3.8349666985 0.4183149376
C -1.4316099964 -3.2949750488 1.4562930303
C -2.4900572193 -2.4295921461 0.7803664141
C -1.8002910621 -1.3377654330 -0.0297917671
C -0.8105689281 -1.9251234427 -1.0422373702
C -0.1478397735 -0.8153798166 -1.8741184126
C 0.7895378349 0.0828820577 -1.0509633569
N 0.0932354328 1.2323541708 -0.4717287297
C -0.4967015748 2.1714824509 -1.3395996200
C -0.1167232795 2.2827088222 -2.6823127424
C -0.7405956755 3.1988584443 -3.5240852872
C -1.7317560198 4.0431562835 -3.0391229337
C -2.1015765214 3.9626492776 -1.6994927255
C -1.5101614061 3.0209397532 -0.8648676868
S -2.0902216569 2.8091756407 0.8016148940
C -0.5336243397 2.4082914673 1.5572077562
C 0.3889869857 1.6278185051 0.8459286843
C 1.5877964302 1.2641113758 1.4721341672
C 1.8337163416 1.6171860103 2.7995519054
C 0.9035118895 2.3922298709 3.4992310933
C -0.2579208378 2.8038632526 2.8623994584
S 3.3091623949 1.1610469645 3.6770901203
C 4.1453035324 0.0286431720 2.5207007169
H 1.8084720339 -2.5638120703 -1.6944737801
H 0.6978797034 -3.9014511831 -2.0901504098
H 1.8128322881 -4.0250888278 -0.7077380165
H 0.3287467593 -4.4201353258 0.9089326898
H -0.9985862445 -4.5265532581 -0.2638112372
H -1.8887234128 -4.1342411400 1.9930772394
H -0.8772310517 -2.6950335453 2.1890088583
H -3.1652812024 -1.9866060251 1.5205072152
H -3.1031229001 -3.0542081416 0.1152880256
H -2.5313427417 -0.7224348189 -0.5663500125
H -1.2632455289 -0.6678384250 0.6518605207
H -1.3857242329 -2.5589674137 -1.7538630660
H -0.9441690193 -0.2182066239 -2.3286154829
H 0.4117661579 -1.2514868580 -2.7079219170
H 1.1649159560 -0.5221582490 -0.2222928784
H 1.6606866734 0.4001655896 -1.6459464321
H 0.6613555339 1.6426639775 -3.0805741985
H -0.4373195111 3.2534916379 -4.5644772882
H -2.2131471443 4.7628812607 -3.6920447626
H -2.8687503372 4.6170394429 -1.2980663076
H 2.3297226799 0.7149725039 0.9104608171
H 1.0888096678 2.6763661738 4.5297330605
H -0.9787916816 3.4165685176 3.3943498622
H 4.4802090896 0.5473991373 1.6181653562
H 5.0216731297 -0.3459941720 3.0546506168
H 3.4999188500 -0.8149795246 2.2596360985
