54
CONF143
C 1.2805025468 3.4612480998 -0.3345723859
C 1.6883832560 2.1663434408 -1.0250178923
C 2.0295973820 1.0345739181 -0.0939235011
C 2.2818762829 -0.2458175775 -0.5585766120
C 2.6333190822 -1.2739640700 0.3483739199
N 2.7338519007 -0.9736796813 1.6579600135
C 2.4651360636 0.2773364285 2.0129848447
N 2.1128369676 1.2951041628 1.2300526086
N 2.8952757804 -2.5341521837 -0.0619187912
C 3.0741981108 -3.6688255003 0.8332012643
C 1.8089748314 -4.4996721806 1.0274641662
O 0.7899796465 -3.7780902583 1.7332156299
C -0.0345760760 -2.9082200813 1.0531786072
C -0.5720580545 -1.8494122984 1.8037870196
C -1.4563099129 -0.9440614927 1.1848394798
C -1.8097550834 -1.1089715415 -0.1676255524
C -1.2611636054 -2.1786052673 -0.8762067826
C -0.3833221830 -3.0762733677 -0.2857637486
C -2.7098800916 -0.1459318482 -0.9023084818
C -1.9215845098 1.0699058665 -1.3704840396
O -2.8042231690 1.9774477866 -2.0223305048
C -2.1156461565 3.1384044308 -2.4959431552
C -3.1186108784 4.0563528290 -3.1607123881
C -1.9908801669 0.1990270786 2.0085896760
C -0.2196516768 -1.6925100196 3.2577628661
Cl 2.1859627488 -0.6088042858 -2.2779368676
H 2.0873639568 3.8559318208 0.2874026827
H 0.4062745687 3.3085543862 0.3048266939
H 1.0262128757 4.2116110627 -1.0887408648
H 2.5602608268 2.3387852834 -1.6714388757
H 0.8941156647 1.8327519824 -1.7025353369
H 2.5446296724 0.4950966749 3.0788326677
H 2.7236356773 -2.7413117227 -1.0345465491
H 3.4247305689 -3.2990875456 1.7984846116
H 3.8469450240 -4.3258454147 0.4156408267
H 2.0517710301 -5.3525530901 1.6687513142
H 1.4430828473 -4.8926306750 0.0733865059
H -1.5308033992 -2.3159304659 -1.9203241200
H 0.0132525233 -3.8943882230 -0.8741981291
H -3.5473158443 0.1859796074 -0.2802945330
H -3.1376805832 -0.6446077987 -1.7785539350
H -1.4328954623 1.5648465204 -0.5134369652
H -1.1266351365 0.7461314115 -2.0642453378
H -1.3289686305 2.8368365221 -3.2072695176
H -1.6224577923 3.6441104511 -1.6499027572
H -2.6140491386 4.9531861106 -3.5322549998
H -3.6004441790 3.5556753009 -4.0058779459
H -3.8909688774 4.3639915665 -2.4494487070
H -2.4371495129 -0.1632418134 2.9408226885
H -2.7440803022 0.7804146830 1.4775113886
H -1.1830050559 0.8852015571 2.2915001343
H -1.0640674595 -1.9788207271 3.8978247478
H 0.6338547225 -2.3138445794 3.5254109925
H 0.0221575965 -0.6524448689 3.4945838216
