34
CONF61
C -1.8913747676 -0.8506424360 2.9601038677
C -1.4811111719 -0.6557290152 1.6485931683
C -0.1414785730 -0.4388040186 1.3030073948
C 0.7796049093 -0.4079069502 2.3553725129
C 0.4076855779 -0.5961645908 3.6833606709
C -0.9320776508 -0.8193109580 3.9636604300
Cl -1.4185277065 -1.0592979685 5.6326240661
Cl 2.4855349222 -0.1035491042 2.0541426021
C 0.2380899968 -0.1966870274 -0.1395944197
C -0.2363012774 1.1933730327 -0.6078166974
N 0.4424735634 2.2520295701 0.1226573486
C 0.0725210203 2.8562601810 1.2691106109
N 1.0234948766 3.6900211755 1.6767716721
C 1.9809778043 3.5408038114 0.7186825027
N 1.6775061504 2.6766632837 -0.2418211749
C -0.3334966892 -1.2861355144 -1.0391941703
O 0.3011232589 -1.1125543203 -2.3450306469
C -0.3093359316 -1.7067219679 -3.3817916310
C 0.5427809242 -1.5028444151 -4.6479748435
F 1.7501929300 -2.1108839248 -4.4663611813
F -0.0811738785 -2.1150612926 -5.6947129135
F -0.5167434125 -3.0483684517 -3.1715633804
F -1.5600536650 -1.1806270478 -3.6244843443
H -2.9359635310 -1.0182248833 3.1939378317
H -2.2369546120 -0.6635491678 0.8697393685
H 1.1470980903 -0.5645235154 4.4738825047
H 1.3261713507 -0.2348758067 -0.2404793389
H -1.3121612337 1.3055656500 -0.4434144729
H -0.0245321296 1.3271743864 -1.6711589480
H -0.8789400061 2.6677882594 1.7500496387
H 2.9191844198 4.0815909657 0.7221575417
H -0.0775229492 -2.2768968587 -0.6542822924
H -1.4181956507 -1.2003487395 -1.1546576487
H 0.6915053639 -0.4415624365 -4.8735152524
