54
CONF66
C 3.8315046119 -1.5937562217 2.0686648735
C 3.9815663582 -0.9357453097 0.6984023057
C 2.8960337292 0.0855295585 0.4898873459
C 1.7376116707 0.0606673116 1.2790111844
C 0.7535258813 1.0422669888 1.1407043582
C 0.8946479957 2.0531015942 0.1993709643
C 2.0288249328 2.0481644880 -0.5947782556
C 3.0237958265 1.0987126436 -0.4649036608
F 2.1746570615 3.0259231055 -1.5361052133
O 1.5008720901 -0.8847011264 2.2448590008
C 2.3913845999 -2.0263586032 2.3006386070
C 1.9130014408 -3.1342816702 1.3489715308
C 0.4018725259 -3.4225287051 1.4447619198
N -0.4906063421 -2.5621345560 0.6660561729
C -0.2215963312 -2.5601302720 -0.7777020839
C -1.5137401225 -2.2963828760 -1.5698587954
C -1.9318294403 -0.8328587358 -1.6837047999
C -0.9503975383 0.0541075319 -2.4320913237
C -1.5676373498 1.4413896570 -2.6004662762
C -2.1993101845 1.9084334727 -1.3136092093
C -2.4330453123 1.0126477768 -0.2610238544
O -2.1333900898 -0.3211166325 -0.3439089705
C -2.9557954392 1.4551875856 0.9563475369
C -3.2652912731 2.7965264296 1.1430455902
C -3.0477788465 3.6673595105 0.0873643205
C -2.5259318287 3.2541779846 -1.1225831390
F -3.3525697389 4.9870434639 0.2534611172
O -2.5711841415 -3.0805563202 -1.0146641219
O 2.6712005197 -4.3202279259 1.6316398333
H 4.1065056098 -0.8817900828 2.8554614247
H 4.4869177320 -2.4631898599 2.1617414370
H 4.9595992613 -0.4515343712 0.6127011064
H 3.9426525137 -1.6904679239 -0.0976232143
H -0.1268554509 1.0002546888 1.7737045927
H 0.1343657088 2.8160305328 0.0747433535
H 3.9085641536 1.1488239320 -1.0927900894
H 2.2692767635 -2.4005540008 3.3252470768
H 2.1607533459 -2.8792885585 0.3131377079
H 0.2610809732 -4.4544282106 1.0968834834
H 0.0901056583 -3.3878434058 2.4975154940
H 0.1294657048 -3.5621203183 -1.0521941620
H 0.5595589236 -1.8484050133 -1.0843300470
H -1.3554725499 -2.6384316054 -2.6012797856
H -0.0176848784 0.1242581774 -1.8608338772
H -0.7184653600 -0.3874699313 -3.4064112412
H -0.8101120484 2.1671090662 -2.9161503304
H -2.3280092262 1.4151745884 -3.3918050737
H -3.1121143899 0.7365129842 1.7545175992
H -3.6709197458 3.1580279834 2.0815714005
H -2.3503275623 3.9773702811 -1.9136963162
H 2.4441504620 -4.6120436683 2.5259771221
H -2.9074484876 -0.8087831630 -2.1954209006
H -2.3518898871 -3.1148414802 -0.0630805552
H -0.4816938331 -1.6147048521 1.0246907058
