32
CONF41
C 3.4733983406 1.1902125171 -2.8728162476
C 2.5548312487 0.8092116634 -1.7455397905
C 2.8914065745 -0.2326799892 -0.8752630829
C 2.0384064341 -0.6126802352 0.1506114958
C 0.8320208453 0.0609615899 0.3295303635
C 0.4775473316 1.0987918761 -0.5251670786
C 1.3375044900 1.4657600105 -1.5536778371
N -0.0697850086 -0.3055313202 1.3922895928
S 0.4798727429 -0.1484628446 3.0018274560
C -0.6024566504 1.2050906789 3.6027986715
F -1.9016729957 0.8489091387 3.6544876695
Cl -0.5090286551 2.7000043309 2.5976884134
Cl -0.0109887734 1.5220003899 5.2702274285
S -1.1008833267 -1.6862604405 1.0513606748
O -1.8495590128 -1.9356756588 2.2821053207
O -0.3127575757 -2.7405109684 0.4120977366
N -2.0449450393 -0.9702128608 -0.1512941721
C -3.0848369187 -0.0792175555 0.3794978046
C -2.5187979521 -1.8933260674 -1.1928848448
H 3.2398060325 2.1855996603 -3.2580312926
H 3.3812945605 0.4808650527 -3.7035226295
H 4.5189927285 1.1813318301 -2.5519429348
H 3.8331294366 -0.7576778269 -1.0080316632
H 2.2983622849 -1.4328305242 0.8118875783
H -0.4642461789 1.6138673007 -0.3754360403
H 1.0597946660 2.2809452598 -2.2156654234
H -3.9074371814 -0.6309702659 0.8546621169
H -2.6515304937 0.6082291178 1.1095971709
H -3.4765582124 0.5069122273 -0.4576376523
H -3.3201748442 -2.5580224064 -0.8379662386
H -2.9046470836 -1.2822229676 -2.0144253154
H -1.6860615018 -2.4924103100 -1.5613674512
