47
CONF144
C -6.1553505227 3.6696537294 1.4392314641
C -5.4427448041 2.3199630632 1.3857641343
C -6.4243627689 1.1559470472 1.2492324578
C -5.7563459160 -0.1996951305 1.2232192225
O -4.9460336983 -0.2668088500 0.0045539711
C -4.1995037446 -1.3647711859 -0.1511550118
O -4.1280327635 -2.2785435812 0.6413811723
C -3.4901750124 -1.3325829812 -1.5059785499
C -4.4061229009 -1.9222792227 -2.5689364921
O -2.3170230791 -2.1423941558 -1.4718769310
C -1.2661481424 -1.7246553030 -0.6989654846
C -0.1609372612 -2.5818821457 -0.6822643134
C 0.9642215005 -2.2534429153 0.0579104045
C 0.9791440575 -1.0660366780 0.7788229495
C -0.1083135323 -0.2116785965 0.7784754952
C -1.2429529985 -0.5371692389 0.0355646965
O 2.0819639037 -0.7674175555 1.5932458084
C 3.1388716944 -0.1192350663 1.0369123749
N 3.0912649107 0.2404461056 -0.2365396263
C 4.1549249163 0.8811173534 -0.7408191775
C 5.2807990874 1.1760506253 0.0125271539
C 5.3124491433 0.7869782527 1.3584527810
C 4.2263017970 0.1274456521 1.8880948632
C 6.4569445397 1.8803889742 -0.5760290826
F 6.7912680178 2.9900101875 0.1366085438
F 6.2453950171 2.2763731459 -1.8503960832
F 7.5685300868 1.0933091484 -0.5852656595
H -6.7385544686 3.8389603991 0.5274208144
H -5.4414931897 4.4928301884 1.5395966913
H -6.8446017064 3.7146154363 2.2896810835
H -4.8450693104 2.1775663293 2.2956176596
H -4.7404173768 2.3062160124 0.5440026338
H -7.0348874639 1.2778825192 0.3453520125
H -7.1181115194 1.1568926911 2.0999899093
H -5.0925468888 -0.3443673300 2.0820088019
H -6.4817455758 -1.0185540633 1.1922239704
H -3.2349128423 -0.2962029500 -1.7605484970
H -3.8997891909 -1.9035534139 -3.5369224929
H -4.6620315254 -2.9547522353 -2.3155838009
H -5.3227639848 -1.3317581282 -2.6378618757
H -0.2000334323 -3.5033713897 -1.2534678046
H 1.8272617779 -2.9107189519 0.0773741077
H -2.0841415834 0.1458262089 0.0483403952
H 4.0934688827 1.1666914237 -1.7874744690
H 6.1788788862 1.0015800113 1.9760040714
H 4.1962394253 -0.1955732921 2.9217803688
H -0.0754689749 0.7076958256 1.3535869724
