30
CONF14
O 5.1993803429 -0.0961992986 1.8709854082
S 5.2450841955 0.0517766189 0.2617906485
O 5.2178994750 1.4545414863 -0.1357055991
O 6.2616304315 -0.8829357723 -0.1947673300
C 3.5788745638 -0.7600905194 -0.2496190269
F 3.7223039787 -1.0981468880 -1.5392959320
F 3.4218405763 -1.8674000497 0.4936223150
C 2.3554619814 0.1934363009 -0.0773912238
F 2.4621071850 0.8065496690 1.1254883033
F 2.4005736285 1.1202324638 -1.0562411819
C 0.9759389631 -0.5573718103 -0.1322714785
F 0.7963980093 -1.1969861956 1.0425163298
F 1.0241269441 -1.4714945678 -1.1272634931
C -0.2352388399 0.4126989636 -0.4056107835
F -0.0592129205 1.5480338357 0.3098418284
F -0.2288325766 0.7137721551 -1.7197200749
C -1.6213111385 -0.2062879200 -0.0009962158
F -1.6571470340 -0.2862308437 1.3469955805
F -1.7074335385 -1.4503068092 -0.5299883558
C -2.8752043432 0.6162543571 -0.4642944460
F -2.8764947595 1.7906000014 0.2089028849
F -2.8023578606 0.8697999141 -1.7875958202
C -4.2363456963 -0.1279989734 -0.2072972526
F -4.4011341734 -1.0604608998 -1.1703445648
F -4.2236734163 -0.7407506111 0.9968714528
C -5.4838531686 0.8168979334 -0.2372414780
F -6.5910291304 0.0631036788 -0.2526657396
F -5.5137147023 1.5982616417 0.8477336913
F -5.4672472583 1.5863179611 -1.3338748721
H 4.8339243078 0.7128932286 2.2798060846
