36
CONF4
C 5.3666682533 -1.1507853935 1.9061997724
O 4.6745986758 0.0918504738 1.8305532136
C 3.5938691500 0.1596376449 1.0027089177
C 2.9449524058 1.3958656202 0.9491996273
C 1.8349243047 1.5714637098 0.1401394209
C 1.3415438119 0.5239752945 -0.6462016574
C 2.0058514489 -0.6992214633 -0.5853238805
C 3.1182286386 -0.8980786282 0.2275270110
C 0.0988590994 0.5937875957 -1.5191108226
C -1.1755774412 0.2846728610 -0.7522408716
C -2.1200861548 -0.5845797034 -1.2912483656
C -3.2951485718 -0.9014886002 -0.6135636858
C -3.5335146019 -0.3356261983 0.6388374586
O -4.6431077917 -0.5664946601 1.3951144634
C -5.6323370465 -1.4420071583 0.8621000539
C -2.5860679537 0.5263373343 1.2016157122
C -1.4238268680 0.8241503486 0.5149460993
C -0.0262100396 1.8688608480 -2.3998770173
Cl -1.2560419565 1.5799452182 -3.6999208304
Cl -0.5574083202 3.3318900436 -1.4906358151
Cl 1.5471960477 2.2226081202 -3.2051823355
H 5.7773813073 -1.4383573205 0.9295488944
H 6.1844851964 -0.9935332269 2.6105404302
H 4.7127541014 -1.9496068863 2.2798413559
H 3.3303456283 2.2128802486 1.5494228747
H 1.3665147594 2.5475265813 0.1149486491
H 1.6453327474 -1.5312889599 -1.1843417069
H 3.5982961779 -1.8685248337 0.2382856133
H 0.2189429967 -0.1939886861 -2.2719885702
H -1.9446208501 -1.0271309265 -2.2672130121
H -4.0015814929 -1.5839069392 -1.0691305590
H -6.0400264042 -1.0557580155 -0.0811570309
H -6.4256770385 -1.4843272569 1.6093213502
H -5.2279353722 -2.4500437975 0.7022433789
H -2.7804063018 0.9435042110 2.1836084316
H -0.6911698519 1.4757930885 0.9773567509
