46
CONF70
C 0.7377127973 1.2134124720 -3.1119460960
C -0.4326789476 2.0753327197 -2.6455472803
C -0.9417563671 1.6470257486 -1.2695878622
C -2.1465134203 2.4600573214 -0.8338351545
O -2.6289012573 1.9770527116 0.4508226970
C -2.0621849466 2.5146155090 1.5411828498
O -1.2880213174 3.4438311041 1.5504301462
C -2.5595887402 1.8263713073 2.8148495775
C -3.9153182099 2.3822428099 3.2181107130
O -2.7240916624 0.4187952271 2.6386542081
C -1.6220446794 -0.3132879083 2.2947949445
C -1.8706925152 -1.6423209070 1.9419633290
C -0.8227079705 -2.4782514347 1.5897590702
C 0.4753194058 -1.9829720768 1.5934821091
C 0.7375612879 -0.6683629445 1.9425472788
C -0.3130553621 0.1774287932 2.2908155419
O 1.5204617005 -2.8703474837 1.3306425732
C 2.2593068058 -2.7010920434 0.2038826463
C 3.4112094306 -3.4948463128 0.1006929302
C 4.2374255884 -3.4430880592 -0.9975989789
C 3.9182221233 -2.5662649016 -2.0461143074
C 2.7728208080 -1.7677342501 -1.9602970940
C 1.9502943041 -1.8341649746 -0.8446524728
C 4.7567035382 -2.4951909097 -3.1919349623
N 5.4376601425 -2.4358418069 -4.1273935870
F 3.7042652608 -4.3281406020 1.1118758643
H 1.1135658953 1.5361655592 -4.0869859976
H 1.5670068054 1.2653062073 -2.3976496601
H 0.4309596417 0.1650023932 -3.2014099582
H -0.1265237606 3.1282807344 -2.6097888497
H -1.2494725466 2.0124278794 -3.3763995283
H -1.2189197494 0.5846799182 -1.2826970405
H -0.1449064803 1.7628867567 -0.5242872963
H -1.9082167360 3.5246401469 -0.7521566001
H -2.9904456912 2.3212510881 -1.5147749377
H -1.8172416072 2.0335963333 3.5965250044
H -4.2388652675 1.9170192091 4.1522318965
H -3.8436964386 3.4628536672 3.3655545055
H -4.6531203103 2.1719710654 2.4401206548
H -2.8936850713 -2.0012366737 1.9506058553
H -0.9990943778 -3.5136330546 1.3199571817
H 1.7596714637 -0.3042810061 1.9513589138
H -0.0887092742 1.2017922399 2.5619678400
H 5.1183152541 -4.0727172027 -1.0368721469
H 2.5290188752 -1.0958607196 -2.7742647223
H 1.0629518694 -1.2144037557 -0.7796111327
