47
CONF114
C 4.3920149694 -2.3773191247 -1.8465606571
C 3.3890050347 -1.5210335217 -1.1335854184
C 2.1647339501 -2.0803501992 -0.6616725411
C 1.8706826109 -3.5301973392 -0.8872796883
C 1.2372782884 -1.2896372690 0.0020425006
C 1.4780582592 0.0718438782 0.2221970450
N 0.5857524294 0.8958399645 0.8820874105
C -0.6809576371 0.3517507347 1.3989862873
C -1.7616897076 0.3002077071 0.3147414347
O -2.0178154909 1.5886514775 -0.2375111000
C -3.0299100641 -0.3347464949 0.9059529070
O -2.7660122281 -1.6900785722 1.2962277985
C -4.2386121266 -0.2633779383 -0.0411373828
O -5.3518881467 -0.9272760118 0.5727071276
C -3.9735973496 -0.8234840164 -1.4343393097
O -3.4711140618 -2.1755249772 -1.4065246538
C 0.8439122408 2.2363962347 1.0370123606
N -0.0587536769 2.9988425780 1.6272751478
C 0.2057263313 4.3249743818 1.8049554720
O -0.5848292458 5.0965824871 2.3472158037
N 1.4349238201 4.8402698754 1.3474411651
C 2.4326142975 4.1418849290 0.7151023419
O 3.4757240587 4.6665154073 0.3462565352
C 2.1115344435 2.7039037674 0.5315667218
N 2.9858812401 1.9505608879 -0.0801631329
C 2.6939060854 0.6391293113 -0.2534728821
C 3.6254186509 -0.1818487974 -0.9213613374
H 5.2641059828 -1.7897427372 -2.1390478156
H 3.9573864999 -2.8258573810 -2.7467660637
H 4.7274313586 -3.2038071863 -1.2101242410
H 0.9042155509 -3.8097085541 -0.4648126973
H 2.6474074797 -4.1577550422 -0.4356824058
H 1.8662351127 -3.7611013044 -1.9588095414
H 0.3191603251 -1.7548169920 0.3359140580
H -0.4982080545 -0.6437832854 1.8038532543
H -1.0088220103 0.9976116497 2.2149451693
H -1.4130759368 -0.3193549281 -0.5215782543
H -2.0592428421 2.2273221439 0.4900592920
H -3.2968946141 0.1951175062 1.8306104650
H -2.6771757851 -2.1959969666 0.4688835514
H -4.5241944114 0.7879320086 -0.1588325366
H -4.9991760932 -1.7172222876 1.0089665476
H -3.2147537565 -0.2205487799 -1.9424550921
H -4.8995294845 -0.7721988874 -2.0204872193
H -4.2204010839 -2.7629622375 -1.2413319308
H 1.5902646869 5.8297294115 1.5041605045
H 4.5432807091 0.2846648975 -1.2656243017
