39
CONF278
C 8.5903204041 2.1305008302 -1.7904684492
C 8.0609887081 1.3079081292 -0.6173364768
C 6.5333213799 1.2770702993 -0.5621857307
C 6.0101304275 0.4239297217 0.5959249155
C 4.5034207184 0.5466584446 0.8755381198
C 4.0718361771 -0.3150398186 2.0710297938
C 4.7211128068 0.0866953148 3.3952450685
C 3.7273949198 0.1695177676 -0.3798295697
O 2.2914598644 0.3670732763 -0.1661619635
C 1.5164953488 -0.7145337508 -0.0395400670
O 1.8833004801 -1.8679325980 -0.0900157703
C 0.0817576417 -0.3058738502 0.1189965085
C -0.4447934505 0.5622255230 -0.8314746203
C -1.7894443531 0.8967148544 -0.8109199186
C -2.6338618044 0.3863980975 0.1790710437
C -2.0997380166 -0.4658335789 1.1613206305
C -0.7438123721 -0.8143492597 1.1247224655
Br 0.0093986857 -1.9084035699 2.4826774742
Br -3.2174243075 -1.1373982681 2.5357879105
Br -4.4679239964 0.8469739649 0.1921604110
Br -2.4186836631 2.0642153635 -2.1714417008
H 8.2396283347 3.1668350601 -1.7294987896
H 9.6846387474 2.1462285152 -1.8077018159
H 8.2447069363 1.7174273934 -2.7446407694
H 8.4392145231 0.2791787200 -0.6862473855
H 8.4462090134 1.7168418113 0.3260378473
H 6.1533720860 2.3039331217 -0.4606699918
H 6.1572009031 0.8985611141 -1.5213671471
H 6.5477175955 0.7161420991 1.5052027270
H 6.2548953734 -0.6332172545 0.4171810999
H 4.2809208883 1.5994944565 1.1063941943
H 4.2921110824 -1.3678363540 1.8475821998
H 2.9838515259 -0.2422779197 2.1857041179
H 4.5736060093 1.1546508713 3.5926750556
H 4.2765414144 -0.4716917441 4.2247085012
H 5.7966567679 -0.1115853656 3.4040453907
H 3.9081639443 -0.8711347438 -0.6639822972
H 3.9655444260 0.8294683153 -1.2155904512
H 0.2005232798 0.9626317329 -1.6035797873
