65
CONF5
C -2.8198262173 2.4383310126 -0.8144532143
C -1.5311452600 2.9301544070 -1.4871034989
C -0.9534596115 1.8701780434 -2.4351004412
C -0.5123118989 3.4441449239 -0.4885631895
C -0.1333172727 4.7886786136 -0.5167685446
C 0.7908528681 5.3206275617 0.3755726945
C 1.3650399189 4.4984061334 1.3358141437
C 1.0161387218 3.1538046155 1.3974872821
C 0.0896908866 2.6454152868 0.4930277670
O -0.2658433602 1.2945058024 0.4927726952
P 0.1987519463 0.2035271902 1.5899264518
O 0.0123597720 0.5638547144 3.0023447870
O -0.5646508236 -1.0876446303 1.0157673111
C -1.9196762467 -1.0531752977 0.6496018751
C -2.8713181787 -0.6203208830 1.5609288713
C -4.2087391804 -0.6085252569 1.1782834687
C -4.5655655357 -1.0347669895 -0.0956586492
C -3.5890715637 -1.4763358839 -0.9841400347
C -2.2365011861 -1.4983286395 -0.6368057299
C -1.1512850981 -2.0237379013 -1.5532265668
C -1.5196683291 -1.9776365254 -3.0353700658
C -0.7752896104 -3.4546180276 -1.1359070815
O 1.7284014349 -0.1677151680 1.2632828106
C 2.1135220147 -0.6840976161 0.0125106696
C 2.1764732243 0.1702566670 -1.0779101719
C 2.5625045968 -0.3377029255 -2.3139896090
C 2.8902414744 -1.6830240381 -2.4308963702
C 2.8498884998 -2.5117877925 -1.3127750649
C 2.4609945917 -2.0372012885 -0.0578626009
C 2.4556388444 -2.8988125254 1.1881761816
C 2.4544890707 -4.3997708839 0.8976330544
C 3.6553457004 -2.5353249018 2.0807130941
H -3.2376486889 3.2095898939 -0.1603435020
H -3.5675811510 2.1900637073 -1.5750485774
H -2.6427106474 1.5413706610 -0.2179225365
H -1.7979679059 3.7985726551 -2.1032457784
H -1.6854620682 1.6328239755 -3.2141307909
H -0.0421063236 2.2325393314 -2.9217750927
H -0.7142941716 0.9470579678 -1.9024419733
H -0.5854125144 5.4322664724 -1.2663779965
H 1.0570042075 6.3707618314 0.3206433795
H 2.0845552687 4.8937366674 2.0447500155
H 1.4493368028 2.5138930892 2.1577211298
H -2.5592438244 -0.2908428366 2.5466882276
H -4.9637367858 -0.2653413734 1.8774301822
H -5.6065023230 -1.0249892290 -0.4015081441
H -3.8841320979 -1.8048587602 -1.9745767344
H -0.2630337228 -1.3973333858 -1.4073278320
H -2.3076602081 -2.6980798829 -3.2804694960
H -1.8560900448 -0.9811257568 -3.3362622210
H -0.6419369316 -2.2358763120 -3.6355495669
H -1.6356838549 -4.1227374759 -1.2533914845
H 0.0443238729 -3.8274124543 -1.7589206897
H -0.4551167866 -3.4869116487 -0.0911923051
H 1.9233205753 1.2174948078 -0.9560809575
H 2.6062892315 0.3197441621 -3.1757816142
H 3.1900680169 -2.0897803763 -3.3911955774
H 3.1194700436 -3.5563258320 -1.4217606266
H 1.5406448409 -2.6612101185 1.7449630044
H 1.6453389160 -4.6857442165 0.2195781084
H 2.3257974371 -4.9532955970 1.8322141857
H 3.4041256664 -4.7231088814 0.4575040690
H 3.6465227070 -1.4774944199 2.3522341644
H 3.6348599660 -3.1260699882 3.0021842566
H 4.5924597461 -2.7504989903 1.5559028522
