38
CONF19
C -5.5897247881 2.0955336065 0.2210090531
C -4.2936941096 1.5658449582 -0.2898641970
N -3.1709696094 2.1595910994 0.1243841130
C -2.0405409869 1.6083884121 -0.3489054289
N -1.9666887056 0.5632037152 -1.1709413592
C -3.1579065052 0.0554270840 -1.5169876731
N -4.3444607000 0.5049831724 -1.1161710339
O -3.0735300854 -0.9834848070 -2.3382682717
C -4.3118723309 -1.6154029551 -2.7568093639
N -0.8784223682 2.2143204773 0.0818098207
C 0.4622532865 1.9003176896 -0.1414344422
O 1.3441986233 2.5321459318 0.4189660893
N 0.6942727152 0.8632252812 -1.0203338613
S 2.2314396136 0.1528475117 -1.1568580733
O 2.0018675923 -1.0720592833 -1.9271294410
O 3.1695104006 1.1559866984 -1.6659290129
C 2.7394435693 -0.2186801975 0.5204249488
C 3.9489302588 0.3412264219 0.9951881575
C 4.2258340642 -0.0516873520 2.2768862934
S 3.0161069594 -1.0925677683 2.9127514121
C 2.0970464424 -1.0323176586 1.4421743802
C 0.8493838675 -1.8109324204 1.4428286576
O 0.4843692709 -2.4655803699 2.4040060796
O 0.1844705955 -1.7212514433 0.2892888405
C -1.0456969131 -2.4902406314 0.2090044435
H -5.8714065973 1.5259747913 1.1154803809
H -5.4964463786 3.1449185590 0.5027680849
H -6.3788875949 1.9609485597 -0.5206103716
H -4.8504805408 -1.9996189806 -1.8882298479
H -4.9333956025 -0.9020888126 -3.3016647752
H -3.9980537202 -2.4300463316 -3.4076170989
H -1.0099295196 2.9987615720 0.7085859400
H -0.1150499956 0.2986238343 -1.3165962743
H 4.5751329038 1.0036763611 0.4135453477
H 5.0793828781 0.2230744193 2.8829063978
H -1.3914825107 -2.3645636284 -0.8152276458
H -0.8411646344 -3.5402507665 0.4273204416
H -1.7769378795 -2.0927623126 0.9168859417
