52
CONF2
C -4.0197405546 1.5550323424 2.8958781443
O -4.1544690385 1.1570621752 1.5245157295
C -3.0255879289 0.7550345046 0.8785626239
C -1.7525541725 0.7287608211 1.4536907045
C -0.6589160782 0.2967494572 0.7023613384
C -0.8283840649 -0.0930300499 -0.6266664607
C -2.1005447881 -0.0671470437 -1.2033166404
C -3.2077480569 0.3487408066 -0.4515394666
O -4.4653413680 0.3382229362 -1.0061908718
C -4.8039281173 1.5847330443 -1.6499446453
O -2.3683508406 -0.4277358617 -2.4891576673
C -1.2634912161 -0.8653046034 -3.2914210003
C 0.7128687850 0.2371040585 1.3663864370
C 0.9770124983 -1.0874121569 2.0882128271
C 1.1487928556 -2.2333493864 1.1056880042
C 0.9655864675 -3.4446986688 2.0077434085
O -0.0085966120 -2.9925209910 3.0102414344
C -0.0172648211 -1.6351297558 3.0843622661
O -0.7053959476 -1.0520213821 3.8889856499
C 2.4646092905 -2.0716470807 0.3736225969
C 2.6288816884 -0.6305439995 -0.1105074602
C 3.6464458621 -0.3955368263 -1.0619658959
C 3.8265698351 0.8901906962 -1.5043634130
C 3.0455691910 1.9413713014 -1.0369784651
C 2.0560087229 1.7439153545 -0.1073428810
C 1.8457317794 0.4316776937 0.3668738605
O 3.4259779127 3.1128871372 -1.6347328515
C 4.5289033154 2.7794002236 -2.5080521573
O 4.7381675934 1.3528557221 -2.4174819224
O 2.6088067189 -3.0218172258 -0.6895169405
H -5.0255119942 1.8175348880 3.2248937188
H -3.6336979803 0.7312707129 3.5073536581
H -3.3614118087 2.4264031879 2.9902500013
H -1.6009614821 1.0326205052 2.4810152696
H 0.0339532731 -0.3922729218 -1.2086312815
H -5.8133457080 1.4644634966 -2.0479712234
H -4.1054210691 1.7958650676 -2.4679880520
H -4.7865948877 2.4073084059 -0.9255213499
H -0.5175602773 -0.0696608553 -3.4031900255
H -1.6874374976 -1.1103669684 -4.2655909690
H -0.7918254070 -1.7560611536 -2.8595603118
H 0.7579850182 1.0494138958 2.1008623884
H 1.9127355783 -0.9735123377 2.6632890465
H 0.3270183801 -2.1999874359 0.3779831927
H 1.8887653294 -3.7147314189 2.5336742749
H 0.5383469774 -4.3205605909 1.5192793744
H 3.2881017400 -2.3057533899 1.0636651405
H 4.2563116345 -1.2122706927 -1.4305912893
H 1.4436475509 2.5649045125 0.2517505253
H 4.2655833466 3.0421713943 -3.5377617165
H 5.4302292073 3.3000791860 -2.1665231521
H 1.9414715619 -2.8127015136 -1.3586338865
