51
CONF3
C 2.7333219849 2.6811302816 1.5376681666
C 3.1160917267 2.5317815751 0.0770582837
C 3.4987242561 3.8440593420 -0.5746371618
O 1.9462723549 2.0557092607 -0.6794437923
C 1.6156156575 0.7634532940 -0.6251379140
N 2.4078735216 -0.1090849272 -0.0064389375
C 1.9728524749 -1.3780590348 -0.0338372510
C 0.8042943595 -1.7925966860 -0.6202996316
C 0.0435198516 -0.7599738129 -1.2078970600
N 0.4543840121 0.4955643527 -1.2421644284
O -1.1381858930 -1.1177548280 -1.7167838130
C -2.0939044109 -0.0890217708 -2.1439344706
C -3.3617717753 -0.2639780923 -1.3596989586
C -4.5139103978 -0.7135766248 -2.0069921932
C -5.7026508670 -0.8984766999 -1.3068180742
C -5.7425785123 -0.6421014905 0.0606025246
C -4.5984117061 -0.1959149503 0.7159583091
C -3.4025335540 0.0023967570 0.0218143589
C -2.2054155522 0.4966577553 0.7482522052
C -1.7363566627 1.7554210948 0.5911379680
O -2.3337981276 2.6320078926 -0.2150348672
C -1.6524386626 3.9050624141 -0.3531731839
C -1.4319744614 -0.3695429326 1.6433418641
O -0.4471916312 -0.0355479502 2.2895064894
O -1.9204139618 -1.6316396543 1.6598231126
C -1.2014415303 -2.5641528355 2.4989626834
C 2.8753487034 -2.3504933816 0.6953659698
F 2.9611247272 -2.0371446032 2.0102901050
F 4.1330343799 -2.3262569186 0.1986262405
F 2.4306580956 -3.6201620699 0.6112130430
H 1.9104268211 3.3964462150 1.6393707636
H 3.5928215884 3.0573783472 2.1006093621
H 2.4310904838 1.7238473421 1.9698786969
H 3.9146369206 1.7942536536 -0.0434355238
H 4.3750657055 4.2561700788 -0.0667999631
H 3.7440436049 3.6992802628 -1.6301386550
H 2.6796203281 4.5658232843 -0.4939067540
H 0.4565916579 -2.8161921199 -0.6113371659
H -1.6481887854 0.8955838444 -2.0024164977
H -2.2670849324 -0.2616433820 -3.2083975074
H -6.5898765700 -1.2468431607 -1.8259381432
H -6.6628935938 -0.7860475033 0.6179867770
H -0.8441463302 2.0892914036 1.1193213653
H -2.2801641879 4.5113870311 -1.0048008721
H -1.5505156176 4.3820014785 0.6258263217
H -0.6701993076 3.7512332275 -0.8091442674
H -0.1584137223 -2.6370591935 2.1794397920
H -1.2440639936 -2.2457982257 3.5436161689
H -1.7088503580 -3.5194449760 2.3687411701
H -4.6270827770 0.0086233012 1.7822050521
H -4.4747359103 -0.9223460806 -3.0725579719
