34
CONF7
C 2.3498396522 -0.3249235847 -0.9201478478
C 3.3763391319 -1.1858829838 -0.2148125903
O 4.4506077128 -0.2651319031 0.1694949880
P 4.1198142447 1.0600802004 1.0204412819
O 3.5457909962 0.5639458623 2.4341372465
O 5.2628390374 1.9933167797 1.0429280650
O 2.7898256763 1.7026712337 0.3717641503
C 1.7910049019 0.7232330890 0.0313946250
C 0.5917667496 1.2326898309 -0.7456278430
O 1.0470214904 2.0586559713 -1.7983938852
C 0.0666239394 -0.1348958877 -1.2870083709
O 1.1787173014 -1.0384971833 -1.3269709473
N -0.9665595285 -0.7231049730 -0.4432608901
C -0.8291362559 -1.6505598384 0.5700761083
N -1.9684652590 -1.9460796886 1.1589291264
C -2.9045149421 -1.1669059649 0.5054641800
C -2.3043453414 -0.3979425966 -0.4925642681
N -2.9090479748 0.4717103095 -1.3123264511
C -4.2241877679 0.5275186933 -1.0700556861
N -4.9368424121 -0.1466711425 -0.1565612053
C -4.2974596438 -1.0150084549 0.6592900767
N -5.0050067097 -1.6896255949 1.5799194105
H 2.8237620132 0.1662062804 -1.7816859212
H 3.8398227741 -1.9254558478 -0.8685164846
H 2.9595771158 -1.6711606359 0.6750201740
H 4.1839759844 0.0552122633 2.9599216117
H 1.4284053016 0.2367106833 0.9470835148
H -0.1617664547 1.7261417670 -0.1214758789
H 0.2748975977 2.4388008453 -2.2376355127
H -0.3556803489 -0.0005705342 -2.2894887743
H 0.1347224455 -2.0789959995 0.8106324726
H -4.7953316072 1.2120615626 -1.6965751931
H -6.0020575358 -1.5626061006 1.6416394408
H -4.5549537770 -2.3555907508 2.1849713725
