59
CONF84
C 3.5235492772 -2.7513747031 -1.8472874242
C 2.1903027117 -1.9812856339 -1.6258398288
C 2.2570152695 -1.4317975905 -0.1851806265
C 3.7615272817 -1.3733579533 0.1499508507
C 4.2771398444 -2.6619881077 -0.5075688746
C 4.0525917661 -1.3171436439 1.6426276006
C 3.6225844550 -0.0340130931 2.3065258384
O 3.3399345990 0.0117979613 3.4952744880
N 3.5702539779 1.1172309204 1.5128378018
C 3.9468381412 1.1532674188 0.1648660652
O 3.9116534500 2.2061305469 -0.4557614561
C 4.4075573251 -0.1335232062 -0.4690915909
C 3.0897471881 2.3799433154 2.1135045618
C 1.6276313898 2.6577385202 1.7665538841
C 0.6363285435 1.7051051643 2.4336542674
C -0.7941811562 1.9275204255 1.9413968485
N -0.9888652885 1.4535597885 0.5625696492
C -2.1133652794 2.1356922563 -0.0877440814
C -2.2563260436 1.6622462753 -1.5321881576
N -2.4405574914 0.2108651743 -1.5729819115
C -1.3418689542 -0.4888107266 -0.9059483194
C -1.2145753205 0.0036610133 0.5323954898
C -3.6815606715 -0.3512335037 -1.6880799311
N -4.7041444770 0.4577236546 -2.0597516690
C -5.8901075663 -0.1242734954 -2.2241380033
C -6.1067041595 -1.4832613768 -2.0272166123
C -4.9940230348 -2.2198163939 -1.6375665593
N -3.7883960877 -1.6837457218 -1.4611982238
H 4.1065214428 -2.2818360327 -2.6456916385
H 3.3563150303 -3.7901540624 -2.1441129226
H 2.0954896894 -1.1626464020 -2.3458500826
H 1.3165228874 -2.6243130183 -1.7616322568
H 1.7704998806 -2.1251220850 0.5117260369
H 1.7597783498 -0.4605222708 -0.0828397135
H 4.0047334874 -3.5073066385 0.1368400343
H 5.3664299652 -2.6657183674 -0.6207520947
H 3.5655304923 -2.1336834598 2.1836581134
H 5.1348873439 -1.4150392614 1.8138450721
H 5.4991724632 -0.1830998019 -0.3455262810
H 4.2078093224 -0.0445437680 -1.5400249688
H 3.7286173481 3.1815858336 1.7378374734
H 3.2238778591 2.2931713457 3.1930905172
H 1.4042300977 3.6862717761 2.0780056052
H 1.5012643894 2.6202068847 0.6791786390
H 0.6649643114 1.8472094645 3.5211079224
H 0.9314370436 0.6645122367 2.2532402977
H -1.0096443438 3.0037960210 1.9630687228
H -1.5147008482 1.4443472869 2.6277971351
H -3.0680041435 1.9544602147 0.4475906876
H -1.9238294898 3.2154402175 -0.0820693689
H -1.3376994713 1.9001273143 -2.0838477066
H -3.0971293229 2.1562111330 -2.0166585004
H -1.5167267534 -1.5634195834 -0.9298194204
H -0.4165592496 -0.2677628618 -1.4538650518
H -2.1363265253 -0.2687594248 1.0866769608
H -0.3751326428 -0.5084220811 1.0136095409
H -6.7075128093 0.5310991980 -2.5240482906
H -7.0802327011 -1.9372679410 -2.1620520364
H -5.0731514079 -3.2911513511 -1.4541634857
