55
CONF244
C 5.0561763941 -3.4755060967 -3.0650678982
O 3.7104217759 -3.5455663536 -2.5718230427
C 3.2583849857 -2.5004658718 -1.8264504142
C 4.0160252926 -1.3726261374 -1.5026118794
C 3.4413354482 -0.3673372587 -0.7272818524
C 2.1256921801 -0.4535987990 -0.2728500041
C 1.3833889589 -1.5956672846 -0.6020459029
C 1.9390257619 -2.6071017446 -1.3666676459
C 1.5518290163 0.6964880226 0.5090874887
S 0.7134780946 0.0380157154 2.0344631678
C -0.3309357849 1.4073898654 2.4984944505
C -0.1001309170 2.0636992368 3.7106095872
C -0.9524559227 3.0741481840 4.1403129834
C -2.0292832008 3.4574231754 3.3440990128
C -2.2581108564 2.8251287034 2.1282496220
C -1.4240781912 1.7903651083 1.7000256433
N -1.7158866439 1.1323920225 0.4714953360
C -3.0252150950 0.4718522648 0.3354085054
C -2.9650330963 -0.9339060442 0.9374655127
N -4.2527019245 -1.6243584060 0.8489872379
C -4.5284202559 -2.0547769065 -0.5259761454
C -4.2507811243 -2.7935429039 1.7337592584
C -0.7924241107 0.9331179614 -0.5159101642
O -1.0395434120 0.2951739169 -1.5359429531
C 0.5686297947 1.5890084587 -0.2876949249
O 1.1145461181 1.8532698721 -1.5934867536
C 2.0575251453 2.8273057937 -1.6730848283
C 2.5904568553 2.9375767008 -3.0668012909
O 2.4203146192 3.4862030534 -0.7213576909
H 5.2093152581 -4.3924553936 -3.6343806994
H 5.7748677469 -3.4296991012 -2.2387231117
H 5.1882396462 -2.6070796693 -3.7205414070
H 5.0406197480 -1.2656004970 -1.8365096970
H 4.0368250101 0.5071240994 -0.4774362419
H 0.3601707149 -1.6971181591 -0.2557910730
H 1.3642355240 -3.4924539450 -1.6193133213
H 2.3708991425 1.3451691465 0.8324671657
H 0.7502889420 1.7684525438 4.3160528695
H -0.7674024776 3.5689608250 5.0879762361
H -2.6869712414 4.2596669774 3.6619912239
H -3.0848106086 3.1373818316 1.4983898839
H -3.2765345085 0.4495898696 -0.7258496718
H -3.7747822680 1.0677357359 0.8610560870
H -2.1547754384 -1.5073915327 0.4446668786
H -2.6960341122 -0.8378065842 1.9968809690
H -3.7513046639 -2.7434450725 -0.9097277072
H -4.5872683547 -1.1947150458 -1.1983435716
H -5.4923370751 -2.5723350571 -0.5583534023
H -5.2205282752 -3.2984603782 1.6762324682
H -3.4654053280 -3.5247548929 1.4627323171
H -4.0849927610 -2.4774658478 2.7686640535
H 0.4506385022 2.5380020018 0.2425456066
H 1.8080556922 2.7603311570 -3.8065795031
H 3.0472321297 3.9168797270 -3.2078915006
H 3.3595273512 2.1673843091 -3.1976196526
