48
CONF61
C -2.8417820300 -2.0597835975 -0.8224402670
C -3.4524596422 -0.6863322835 -0.5080836762
C -4.6629898798 -0.8562606892 0.4195918972
C -3.9327054234 -0.0511447209 -1.8241480073
C -2.3617122144 0.2634790643 0.0674822208
C -1.5220196043 -0.2994093498 1.2342650847
N -2.2779207308 -0.5128105847 2.4516150431
C -2.3321089436 -1.6227989856 3.2191006884
N -3.1519333388 -1.4297203001 4.2413549883
C -3.5803622339 -0.1492431126 4.0519704559
N -3.0763917319 0.4498074829 2.9829055785
O -0.4814515578 0.6173959630 1.5916982375
C 0.6764279313 0.6407534933 0.8550135534
C 0.9964584826 -0.2427044932 -0.1770067636
C 2.2254016824 -0.1223248863 -0.8206137990
C 3.1515003995 0.8643260177 -0.4673798897
C 2.8017035244 1.7435938988 0.5697713313
C 1.5847897441 1.6377778043 1.2224474491
C 4.4493978733 0.9782810386 -1.1629598555
C 5.1406485108 -0.1660658167 -1.5880826472
C 6.3606323434 -0.0586564085 -2.2477319499
C 6.9188317095 1.1942786043 -2.4943979143
C 6.2437161646 2.3391432790 -2.0752528582
C 5.0222364682 2.2331455232 -1.4178102629
O -2.8584651972 1.5628046662 0.3686774711
H -2.6161913292 -2.6311468511 0.0840653389
H -3.5526245492 -2.6487951342 -1.4109216917
H -1.9216086418 -1.9591836257 -1.4101951414
H -5.0947238647 0.1106987140 0.6969623779
H -5.4357003962 -1.4263273275 -0.1068831004
H -4.4175016710 -1.4058468307 1.3328089480
H -3.1029882467 0.0555366666 -2.5321108509
H -4.3669075072 0.9367026424 -1.6477066023
H -4.6958658451 -0.6866231275 -2.2846381342
H -1.6327513402 0.4127571312 -0.7406857833
H -1.1010870387 -1.2739292478 0.9698891525
H -1.7734428528 -2.5208215630 2.9881897992
H -4.2741823771 0.3545625778 4.7129101890
H 0.3147178074 -1.0168945685 -0.5062609301
H 2.4494764477 -0.8039274223 -1.6351983372
H 3.5021137698 2.5098095843 0.8872979172
H 1.3266516594 2.3123340562 2.0323238500
H 4.7288229670 -1.1490988134 -1.3806282451
H 6.8821492488 -0.9579251444 -2.5615219250
H 7.8713382929 1.2777044890 -3.0081804123
H 6.6651634612 3.3208655375 -2.2693824846
H 4.4953106959 3.1342080339 -1.1186781809
H -3.2896097896 1.5199055127 1.2385588154
