51
CONF38
C 0.1423221448 5.2634480174 0.3801526130
C 0.6891039324 4.0425731835 -0.3330325090
C 0.0676723531 3.8267022201 -1.7017087615
O 0.3577172021 2.9154022085 0.5387819560
C 1.0520037914 1.7819657085 0.4181643808
N 2.0471931881 1.7022306772 -0.4627186096
C 2.6978573600 0.5292209919 -0.4782768632
C 2.3837514680 -0.5444018409 0.3172100545
C 1.2942174595 -0.3255216889 1.1848030439
N 0.6396346356 0.8161171267 1.2552768351
O 0.9295001155 -1.3595440969 1.9525851690
C -0.2781414139 -1.2244934829 2.7354377663
C -1.5618484947 -1.1023133012 1.9505099713
C -2.6298651774 -0.5036851898 2.6215775255
C -3.8819014733 -0.3855810444 2.0350860392
C -4.0782184867 -0.8573835456 0.7416452945
C -3.0207975056 -1.4408689258 0.0601464940
C -1.7567293279 -1.5854770007 0.6457444503
C -0.6800166837 -2.1921057329 -0.1708354608
C -0.2734489844 -1.6457524263 -1.3370300204
O -0.7921485890 -0.5043874592 -1.8119052862
C -0.2273569476 -0.0461395777 -3.0526191694
C 0.0444942811 -3.4037272109 0.2427904294
O 1.0245846345 -3.8721722657 -0.3050064855
O -0.5230444794 -3.9641178319 1.3427908193
C 0.1629422734 -5.1279107623 1.8397134352
C 3.8275839505 0.4600229868 -1.4858527460
F 4.7406539180 1.4271670541 -1.2726343317
F 3.3593276293 0.6198405545 -2.7493012913
F 4.4671811185 -0.7259219179 -1.4418984589
H -0.9428284153 5.1856155369 0.4956440114
H 0.3671544919 6.1611473555 -0.2026365920
H 0.5920048679 5.3689796455 1.3705611753
H 1.7794952895 4.0957769580 -0.4163636668
H -1.0151996021 3.6974852523 -1.6073021304
H 0.2616143699 4.6969246718 -2.3362601759
H 0.4968264203 2.9472995066 -2.1865598615
H 2.8900053938 -1.4985199880 0.2755654007
H -0.2887684789 -2.1441540481 3.3278211247
H -0.1763162454 -0.3635792792 3.4035601084
H -2.4691300663 -0.1116157040 3.6225501608
H -4.6944116662 0.0831484271 2.5805548026
H -5.0485097541 -0.7678723715 0.2641222167
H -3.1633910413 -1.8084884537 -0.9507928178
H 0.5176478843 -2.1209041188 -1.9166900628
H -0.3517720236 -0.8033534694 -3.8349419543
H -0.7799343559 0.8544204663 -3.3210879376
H 0.8330321259 0.1950362874 -2.9257167986
H 0.1852385536 -5.9142333761 1.0807013119
H 1.1897010147 -4.8746421545 2.1191663687
H -0.4066815701 -5.4516564554 2.7112565430
