35
CONF2
C -5.5911629529 1.1002945628 -0.8459257957
C -4.4134239611 0.2160976615 -0.4578804345
C -4.8863466333 -0.8274386383 0.5510924306
O -5.3473704456 -1.8970274862 0.2317258539
O -4.7922971101 -0.3939870222 1.8253819801
O -3.4019778656 1.0748179667 0.0519308040
C -2.1729987010 0.5317701835 0.3222969131
C -1.2246677381 1.4294241169 0.8215363464
C 0.0530407237 0.9941966868 1.1252460340
C 0.3824343053 -0.3413192615 0.9251429411
C -0.5460588609 -1.2401935379 0.4381642948
C -1.8372185704 -0.8085018650 0.1333764890
O 1.6397578708 -0.8257557276 1.3078639786
C 2.7270284991 -0.4661311148 0.5776019696
N 2.5706920557 0.2311227162 -0.5352560892
C 3.6705645388 0.5529176968 -1.2248448669
C 4.9479424058 0.1872262601 -0.8256602085
C 5.0923812574 -0.5524402534 0.3543558681
C 3.9686407295 -0.8913146043 1.0743491798
C 6.1597531880 0.5944213905 -1.5990993819
F 7.0249188155 -0.4391966598 -1.7566874069
F 5.8529589929 1.0563586134 -2.8308703857
F 6.8529910147 1.5785902241 -0.9663480762
H -5.2719848282 1.8140425888 -1.6087036884
H -6.4012719193 0.4861617172 -1.2462937407
H -5.9507753824 1.6510591560 0.0269066077
H -4.0503038521 -0.3350799248 -1.3354910860
H -5.1359911862 -1.1065321212 2.3879423937
H -1.5120947813 2.4648401873 0.9656591641
H 0.7963395017 1.6829789511 1.5108266134
H -0.2652169725 -2.2779906393 0.2974085164
H -2.5519174379 -1.5300869366 -0.2439697681
H 3.5171775525 1.1232210884 -2.1373051689
H 6.0774325166 -0.8562130726 0.6932343514
H 4.0190252256 -1.4642380916 1.9922932886
