82
CONF254
C -5.1545936878 -1.5652169507 -2.1672764089
C -5.2003469494 -0.2573299396 -1.4200825357
C -6.3670820830 0.2357366563 -0.9944768152
C -3.8379729381 0.3894439165 -1.2583348896
C -3.7746816321 1.8750701078 -0.8067796921
C -2.9509311354 1.9213551378 0.5020827704
C -2.9933891905 0.4823329948 1.0451834559
C -2.9549076531 -0.3862042233 -0.2298300292
C -1.5366174187 -0.7008363207 -0.7767204484
C -0.8271269241 0.4496152093 -1.4918677475
C 0.4189379884 -0.0541203851 -2.2104728245
C 1.4816442655 -0.6560108161 -1.2722856092
C 2.5805710205 0.4070138221 -0.8246564688
C 2.0071838635 1.7673940110 -0.3821019460
C 3.0744837084 2.7593274789 0.0833998303
C 3.8901250878 2.2064036334 1.2416647733
C 4.5343036102 0.8362812414 0.9105171523
C 3.4916996748 -0.1764744185 0.3077222860
C 2.6308023290 -0.8408511418 1.3866392006
C 1.8312569219 -2.0133991274 0.8325748892
C 0.8155730825 -1.6871355144 -0.2766321137
C -0.6215513352 -1.3066419284 0.3226841487
C -0.5381039473 -0.2820333118 1.4735774801
C -1.8952128351 0.1236474187 2.0564007445
C -1.2984540576 -2.5795550748 0.8784931516
C 0.6511621151 -2.9950926638 -1.0983051942
C 5.7204923913 1.0810581630 -0.0462243851
C 5.1839976036 0.2671545701 2.1869932638
O 2.9825198323 2.1570959390 2.3566833203
C 3.4066495413 0.6225667890 -2.1219122400
C -4.3551254937 0.3455334513 1.7746256639
O -4.8045233146 -0.9963275476 1.9507243465
H -6.1335092346 -2.0487871039 -2.2005347281
H -4.4379913730 -2.2621271971 -1.7169993774
H -4.8173706046 -1.3960688891 -3.1975645379
H -6.4556427195 1.1901978691 -0.4882275070
H -7.2922564517 -0.3056055185 -1.1675301786
H -3.3741171120 0.2890507812 -2.2477783922
H -3.3159379578 2.4919360223 -1.5852237479
H -4.7756895944 2.2830001163 -0.6503474558
H -1.9217843535 2.2386562010 0.3144162162
H -3.3677010231 2.6307986827 1.2283262009
H -3.4102376848 -1.3533234429 -0.0027338200
H -1.6997145005 -1.4772105165 -1.5423148325
H -1.4893770613 0.9121541611 -2.2314660935
H -0.5562424943 1.2379908126 -0.7885382546
H 0.8452834928 0.7581184714 -2.8064686092
H 0.1092921221 -0.8198675484 -2.9343066004
H 2.0968793202 -1.3139325657 -1.8993285337
H 1.3068245172 1.6364314721 0.4459318585
H 1.4444051270 2.2141324105 -1.2094899562
H 3.7466882870 3.0400560365 -0.7328979860
H 2.5935895790 3.6846471551 0.4191260781
H 4.7078296241 2.9103426039 1.4778309441
H 4.0877344748 -0.9823764486 -0.1519613006
H 3.2721871072 -1.2495101881 2.1716859868
H 1.9985626020 -0.0919287233 1.8648207866
H 1.3348682653 -2.5446923563 1.6528847414
H 2.5579946033 -2.7288686959 0.4198775973
H 0.0599509621 -0.6982646344 2.2903830812
H -0.0112418366 0.6113064132 1.1340575848
H -2.2734686101 -0.6877480200 2.6887039251
H -1.7486790632 0.9792748143 2.7295577254
H -2.1773719218 -2.3357008409 1.4765306460
H -0.6213388379 -3.1457363894 1.5247158048
H -1.6340180249 -3.2422822744 0.0760347190
H -0.1384645512 -2.9314842111 -1.8524669955
H 0.4266443882 -3.8453379959 -0.4504130168
H 1.5867087499 -3.2273667773 -1.6154649565
H 6.1720318210 0.1271756796 -0.3386313038
H 6.4919841887 1.6700969065 0.4617636894
H 5.4547811012 1.6122981750 -0.9572891199
H 5.6518054035 -0.7017725787 1.9789399459
H 4.4827879633 0.1142068258 3.0103158447
H 5.9723706627 0.9451212217 2.5349491294
H 3.4789009682 1.8907653639 3.1370639861
H 3.9360329750 1.5744214607 -2.1415685616
H 2.7617291488 0.6159540636 -3.0038592973
H 4.1446425974 -0.1756767794 -2.2527431538
H -4.2385332424 0.7698472408 2.7803864419
H -5.1233215941 0.9349328778 1.2620063977
H -5.2992844550 -1.2270450182 1.1538326554
