51
CONF3
C 5.6443042896 0.2428322144 2.3486451462
C 5.4996523065 -0.4709525471 1.0328870089
C 6.5497907272 -1.0664330453 0.4152252329
C 7.9474081602 -1.1338347174 0.9525189534
O 8.0517907400 -1.8982944264 2.1717524899
C 4.1965361308 -0.5217137926 0.4117462117
C 3.0533511761 0.0148888304 0.9141887127
C 1.7957178665 -0.0643052823 0.2449648139
C 0.5917792709 0.4349666861 0.6596545754
C 0.4061514121 1.1768192733 1.9522174166
C -0.5593367646 0.2403866333 -0.1876665796
C -1.8212534838 0.6490639559 0.0806644389
C -2.9811077354 0.4448136185 -0.7854856647
C -2.9401243840 0.6606992485 -2.1231947338
C -1.7774746790 1.2784012481 -2.8492488545
C -4.0972405112 0.3431453433 -3.0346293591
C -5.1531953148 -0.5414966354 -2.3892682980
C -5.4705081139 0.0048493830 -1.0060343153
C -4.2535754514 -0.0334422163 -0.0654384882
C -4.5771222737 0.8747606360 1.1370743615
C -4.0293077482 -1.4652703457 0.4553130496
H 5.3006003713 1.2796170074 2.2623685420
H 5.0299298236 -0.2409559360 3.1162964915
H 6.6739344508 0.2366088770 2.7036307887
H 6.3655626093 -1.5636509293 -0.5360019146
H 8.6173661141 -1.5502250388 0.1872337842
H 8.3277298957 -0.1377904294 1.2084616823
H 7.5015318321 -2.6818081092 2.0570272510
H 4.1432148224 -1.0404449539 -0.5454170522
H 3.0977160426 0.5277608284 1.8702774819
H 1.8046833030 -0.5856306511 -0.7125404234
H -0.3132203713 0.6552554374 2.5944384097
H 1.3339814931 1.2868929946 2.5123700264
H 0.0029527495 2.1786793425 1.7665006497
H -0.3800151179 -0.3033747898 -1.1134207097
H -2.0111072776 1.1215413130 1.0411623158
H -1.2129299692 0.5256523034 -3.4153167027
H -1.0824823822 1.7878509127 -2.1804375528
H -2.1523814296 1.9986170901 -3.5875911415
H -4.5525851732 1.2892820387 -3.3691653097
H -3.7007776028 -0.1247225370 -3.9468357390
H -6.0553266226 -0.5765740541 -3.0099123856
H -4.7798194158 -1.5698269044 -2.3137086398
H -6.2934665431 -0.5501172717 -0.5387899567
H -5.8055840552 1.0467023495 -1.1090487787
H -5.5708203034 0.6213232941 1.5225143763
H -3.8688789411 0.7468581738 1.9603597890
H -4.5848896178 1.9296609008 0.8428101172
H -3.8561174279 -2.1670174990 -0.3658460110
H -3.1533596868 -1.5044179040 1.1105806170
H -4.9016792271 -1.8056309080 1.0252211716
