40
CONF74
C 4.0882163162 -2.3108796329 -1.2830402771
O 4.0034509191 -0.8981477309 -1.6142948804
C 4.4787538402 -0.0560274304 -0.6855869792
O 4.9414983177 -0.3995972717 0.3790004941
C 4.3762231201 1.3725023167 -1.1931302525
S 4.3108915105 2.6259026291 0.1203997174
C 2.7519771887 2.2777657320 0.9016730338
C 1.8322895551 1.3405872614 0.4282115145
C 0.6142457265 1.1052794332 1.0754977718
C 0.3511576668 1.8387157383 2.2374879701
C 1.2309181695 2.7789516934 2.7374470295
C 2.4241555767 2.9924455020 2.0622821306
Cl 3.5398159808 4.1905792147 2.6923578711
F -0.8017709480 1.6103535646 2.9083740631
N -0.2540058957 0.1149870023 0.6151925471
C -1.3801324729 0.4490062614 0.1040250415
N -2.3006848551 -0.4733305494 -0.3349841365
N -3.5434390382 0.0966265772 -0.6650184242
C -3.5689125239 1.4509944082 -0.7660911451
O -4.4805991357 2.1325333111 -1.1952784031
S -1.9840475085 2.1103195623 -0.1716440076
C -4.4372995156 -0.7545495385 -1.4682612377
C -4.6186790536 -2.0981442726 -0.7762719268
C -3.2566737277 -2.7271294364 -0.4945498370
C -2.3993197387 -1.7866597505 0.3397784695
H 3.6598863946 -2.8311863587 -2.1381237988
H 3.5125015765 -2.5139348774 -0.3773952102
H 5.1317655972 -2.5979547115 -1.1369683836
H 3.5521702967 1.4794745154 -1.9031303500
H 5.3029175271 1.5948296168 -1.7370050807
H 2.0212038743 0.7692711608 -0.4723940665
H 0.9873969608 3.3269978921 3.6403416874
H -5.3783341268 -0.2108145989 -1.5632989728
H -3.9945137144 -0.8851606831 -2.4655474584
H -5.1704909491 -1.9562934336 0.1605878012
H -5.2182530223 -2.7431697440 -1.4252416082
H -3.3689343533 -3.6663829529 0.0549841309
H -2.7435350014 -2.9493507559 -1.4379021403
H -1.3797696639 -2.1586459049 0.4439906290
H -2.8320420770 -1.6407638488 1.3402316883
