42
CONF93
C -6.7704746370 1.4123879767 1.0273195195
C -5.7320716945 2.1804650815 1.8379192815
C -4.2999758861 1.8258596936 1.4808120090
O -4.0279115027 0.4280966628 1.6106225295
C -3.7943504400 -0.1006301209 0.3019722285
C -3.2944837870 1.1135014586 -0.4693322833
O -4.0409695375 2.1792321404 0.1178460311
C -1.8027955329 1.3649730336 -0.2896599114
O -1.1296815577 0.3197085562 -0.9884081334
C 0.2372738590 0.3038630969 -0.9551724839
C 0.8457092704 -0.7528617775 -1.6410572159
C 2.2252009604 -0.8611956462 -1.6736026839
C 3.0066323095 0.0834326779 -1.0090817015
C 2.4118596569 1.1325584637 -0.3283490372
C 1.0223195955 1.2531197428 -0.3021169586
O 4.3907118021 0.0478582204 -1.0826683643
C 5.0465040147 -1.0838493593 -0.6472218716
C 4.4991243338 -1.9747072692 0.2744087242
C 5.2557014977 -3.0660187492 0.6914820087
C 6.5428067893 -3.2698399374 0.2042148840
C 7.0780433908 -2.3658288342 -0.7106910123
C 6.3352963048 -1.2744477670 -1.1421463752
H -6.6431862379 1.5953539033 -0.0432507476
H -7.7816762581 1.7214761304 1.3058586664
H -6.6859618358 0.3374058819 1.2106598457
H -5.8585578762 1.9853991553 2.9092562360
H -5.8459091774 3.2619182342 1.6944678996
H -3.5947403483 2.3548346835 2.1435797496
H -3.0523428170 -0.9002720991 0.3749992440
H -4.7229363591 -0.4909434556 -0.1376178420
H -3.5400351619 1.0698072078 -1.5356422451
H -1.5423723200 1.3456597047 0.7794931451
H -1.5425686948 2.3473328430 -0.7075827478
H 0.2173400154 -1.4741747437 -2.1521300904
H 2.7031795511 -1.6744343427 -2.2096665070
H 3.0388777412 1.8595533818 0.1761692888
H 0.5758515742 2.0837160552 0.2300833998
H 3.4990239829 -1.8136250418 0.6606202880
H 4.8309037257 -3.7588106707 1.4111313287
H 7.1244547560 -4.1231623674 0.5353984093
H 8.0814505921 -2.5129084757 -1.0975888272
H 6.7347371554 -0.5617514192 -1.8553275663
