43
CONF12
C -2.8160211347 0.6181948501 -4.3493211424
N -3.0727272883 -0.0495030494 -3.0708701063
C -2.6364349257 0.2486842190 -1.8214669652
C -3.1826082838 -0.6919870548 -0.9423032787
C -3.9384711640 -1.5128876707 -1.7963323089
N -3.8608824760 -1.1352394247 -3.0680877648
Cl -4.8472048740 -2.9136341377 -1.3803493755
C -3.0311781891 -0.8557731545 0.5127816174
O -3.9228047524 -1.2431345241 1.2403774965
O -1.7880265656 -0.5645898039 0.9194271218
C -1.5534447159 -0.7058047305 2.3462913170
S -1.7237373758 1.7281276643 -1.4064322726
O -1.6407413254 2.5551989695 -2.6085198540
O -2.2841180984 2.2750695812 -0.1687965511
N -0.1830701857 1.2014430179 -0.9759993574
C 0.4899044918 0.2654068606 -1.7381284120
O 0.1412414534 -0.0562223462 -2.8669624811
N 1.5996100214 -0.3039523444 -1.1384145072
C 2.1284653688 -0.1452306532 0.1406512933
N 3.1610205733 -0.9438817969 0.4103924128
C 3.6840723560 -0.8089043133 1.6338918962
C 3.2055308539 0.0997074227 2.5764276866
C 2.1315136444 0.8774600664 2.1660457447
N 1.5789901577 0.7621854505 0.9496189515
O 1.6404957208 1.7744926328 3.0267812386
C 0.5795668284 2.6466864393 2.5671453752
O 4.7219806449 -1.5714924716 1.9931542226
C 5.2360292360 -2.5135940874 1.0208040161
H -3.3289913548 1.5810602821 -4.3791060542
H -1.7431236932 0.7629973487 -4.4728427164
H -3.2054210963 -0.0403046359 -5.1244768243
H -2.1630744637 0.0151259024 2.8960244784
H -1.7939874607 -1.7222998612 2.6641010361
H -0.4927442761 -0.5016903827 2.4814606556
H 0.1063189698 1.2965739541 0.0133151097
H 2.0662003630 -0.9934170037 -1.7140128833
H 3.6483842693 0.2007077368 3.5579508673
H 0.9071398224 3.2210014852 1.6964799647
H -0.3161018799 2.0696607876 2.3220419517
H 0.3794201865 3.3100295281 3.4075052089
H 4.4656163991 -3.2378819738 0.7461201312
H 5.5891441943 -1.9886021605 0.1301707723
H 6.0642709081 -3.0097861736 1.5252669216
