46
CONF21
C -1.6848865924 1.2232268288 -2.2794761413
C -1.0339613014 1.2645520047 -0.9034706184
C -1.7041770774 0.2664940046 0.0427424913
O -1.7864568393 -0.9337254089 -0.0607402073
N -2.1924766950 1.0373052604 1.0833041818
C -1.9705842485 2.4141132646 0.8929322258
O -2.3000120582 3.3114061444 1.6085709999
O -1.3284719700 2.5586448301 -0.2957736189
N -2.8764227558 0.5395613693 2.1742331100
C -4.2449596524 0.2290071968 1.9736004887
C -4.8261945927 -0.7566890884 2.7738005450
C -6.1808650448 -1.0344945789 2.6540734878
C -6.9673371636 -0.3410776870 1.7375624299
C -6.3815027433 0.6405314831 0.9455719141
C -5.0268102730 0.9338989626 1.0591307807
C 0.4672327056 1.0499810159 -0.9461880957
C 1.3560162417 2.0737798854 -0.6195985114
C 2.7277758514 1.8616338639 -0.6848548517
C 3.2170818087 0.6218063396 -1.0804604578
C 2.3411735466 -0.4100558096 -1.4157985056
C 0.9729175799 -0.1908231526 -1.3446674443
O 4.5841087921 0.5007819593 -1.1913280935
C 5.1808399824 -0.7182737801 -0.9192513006
C 4.8275910503 -1.4759422641 0.1946519912
C 5.5162719322 -2.6557458117 0.4538049844
C 6.5508512988 -3.0709740897 -0.3810827249
C 6.8980031280 -2.2960031786 -1.4837135020
C 6.2125792089 -1.1176387615 -1.7609742323
H -1.5147655746 0.2443874816 -2.7329907797
H -2.7623730108 1.3933612562 -2.1984939403
H -1.2382870938 1.9941828328 -2.9115011039
H -2.3528021557 -0.2235744276 2.5872255960
H -4.2163020420 -1.3048992766 3.4865332369
H -6.6218350033 -1.8055476084 3.2775336260
H -8.0244446396 -0.5633169113 1.6436136645
H -6.9833508981 1.1941563523 0.2321715864
H -4.5912523893 1.7198208772 0.4521280167
H 0.9785692631 3.0400558290 -0.3079292770
H 3.4283369693 2.6500020424 -0.4329442863
H 2.7285422226 -1.3734436407 -1.7277675513
H 0.2924725647 -0.9989635828 -1.5908058430
H 4.0276049362 -1.1414708407 0.8463904091
H 5.2467385730 -3.2487091711 1.3219081648
H 7.0850489838 -3.9910221870 -0.1704539899
H 7.7045182743 -2.6103622225 -2.1382069781
H 6.4662546843 -0.4999372982 -2.6154115833
