73
CONF1195
C -1.4585748674 1.6110033011 -4.7768589099
C -1.7265797326 2.2762972339 -3.4441854178
O -3.1005924915 1.9731681980 -3.1031706271
C -3.5280634722 2.4924209584 -1.8626370899
O -2.8113732623 1.9408794016 -0.7667884262
C -3.1687030400 0.5986266893 -0.4302788694
C -4.0695438260 0.5953025336 0.7990665550
O -5.3049429462 1.2067269426 0.4376149652
C -4.2844294208 -0.8203743539 1.3309898437
O -5.0850833632 -0.7908935259 2.5142500584
C -2.9356974549 -1.5023780336 1.5682008413
C -3.0508207150 -2.9634248552 1.9661186589
O -3.7582238738 -3.7417961141 1.0020507317
O -2.1858044275 -1.4746407785 0.3386736945
C -1.8880427181 -0.1615464053 -0.0990093370
O -1.1379628785 -0.2811071234 -1.2858785114
C 0.1939141307 -0.5676392935 -1.1936083498
C 0.8871314748 -0.4862631013 -2.4027801706
C 2.2478966118 -0.7463554475 -2.4146017299
O 2.9230762496 -0.6362152264 -3.5691522160
C 2.9340969560 -1.0999338248 -1.2176082503
C 4.3652740707 -1.2447594769 -1.1953330091
O 5.0697708178 -1.1350468336 -2.2179069336
C 4.9834536526 -1.4886225168 0.1561939909
C 4.0257299943 -2.2585172766 1.0553386417
O 2.7544417222 -1.5382162102 1.1539485423
C 2.1809555750 -1.1936800659 -0.0236626861
C 0.8183448922 -0.9312555696 0.0029167471
C 4.5355689143 -2.4615749183 2.4503231915
C 4.7507998134 -1.3724438243 3.2990336021
C 5.2379808953 -1.5579379499 4.5860389137
C 5.5279573889 -2.8491830099 5.0364767324
O 6.0116619395 -3.0952328943 6.2881693740
C 5.3217389576 -3.9457548828 4.1992771438
C 4.8218691628 -3.7448765284 2.9183123260
C -3.3491331260 4.0075589921 -1.7689787968
O -4.2939878683 4.5881535860 -2.6665667432
C -1.9219790259 4.3928690862 -2.1393398779
O -1.8665493674 5.8231028935 -2.1606368308
C -1.5389571582 3.7964648622 -3.4838842417
O -0.1641707747 4.1458852193 -3.7007454281
H -2.1129852742 2.0263804859 -5.5505833724
H -1.6409213050 0.5349315120 -4.7038055840
H -1.0634244424 1.8638879771 -2.6709548515
H -4.5918365504 2.2381160542 -1.7992979190
H -3.6651028057 0.1002724786 -1.2740431765
H -3.5682496970 1.1894712086 1.5853839502
H -4.8544322682 -1.4012046172 0.5972759946
H -4.5990556591 -0.3039338874 3.1956066056
H -2.3797360718 -0.9648693844 2.3575454072
H -3.6118419136 -3.0305312888 2.9021395569
H -2.0402527293 -3.3625681904 2.1336488380
H -3.2545549528 -3.7093938342 0.1783715572
H -1.3111721744 0.3850135446 0.6666665177
H 0.3712199129 -0.2084014609 -3.3137628704
H 3.8792820491 -0.8109284850 -3.3467610430
H 5.2214612032 -0.5132454981 0.6034050079
H 3.8029942211 -3.2318761538 0.5963466468
H 4.5260491171 -0.3660535970 2.9580932608
H 5.3952913693 -0.7066408031 5.2431181791
H 6.1067481745 -2.2611607640 6.7675290157
H 5.5462387040 -4.9434656967 4.5620611779
H 4.6531637519 -4.6024207080 2.2727723850
H -3.5566367548 4.3208333595 -0.7352248012
H -4.0330826233 5.5131067882 -2.7782605017
H -1.2365184497 3.9952932868 -1.3742014353
H -1.0347780275 6.0640112841 -2.5913714719
H -2.1750297008 4.2243386257 -4.2718158767
H 0.0094550501 4.1293648410 -4.6492918932
H -0.4169219701 1.7601042533 -5.0753557160
H 5.9195719848 -2.0413234125 0.0398101601
H -5.8897715232 1.1293511525 1.2042799528
H 0.2761659894 -1.0617968586 0.9295098338
