55
CONF404
C -8.5529231107 -1.1039603265 0.6110057060
C -7.0521817913 -1.2535214114 0.6737218091
O -6.4856572291 -0.2247793388 -0.1904364040
C -5.1347378990 -0.2049573219 -0.2621214779
O -4.3994048093 -0.9714592391 0.3381870103
N -4.7465377888 0.7996316855 -1.1077400627
C -3.4458314178 1.1664130366 -1.4732441264
C -2.2983095506 0.5827212686 -0.9294047544
C -1.0488178307 1.0002639463 -1.3740150028
C -0.9174876741 2.0297875591 -2.3065845083
C -2.0653664512 2.6267306068 -2.8276344401
C -3.3164952829 2.1859716547 -2.4296859586
S 0.7061216305 2.5670045032 -2.8045967833
C 1.5251330355 2.3636878670 -1.2370888609
C 2.5280665785 3.2440326392 -0.8328389315
C 3.1366164653 3.0707362873 0.4063341781
C 2.7147431140 2.0533468376 1.2607572814
C 1.7014385114 1.1865800691 0.8656410558
C 1.1386934820 1.3087204568 -0.4027460762
N 0.1444315270 0.3956832332 -0.8687265424
C 0.3650390756 -0.9603790972 -1.0776392553
O -0.5184209437 -1.6826191285 -1.5299924483
C 1.7268733374 -1.5238843306 -0.7409428256
C 1.6346774292 -2.4363606433 0.4904975256
N 2.9313064964 -3.0225088144 0.8362102665
C 2.7458600094 -4.1283790783 1.7879586953
C 4.0893604802 -4.7398714510 2.1460295665
O 4.9647764580 -3.7664866290 2.7278069535
C 5.1517694356 -2.6793925479 1.8143303373
C 3.8280569248 -2.0304766154 1.4487396301
H -8.8633668291 -0.1177732219 0.9672770215
H -9.0139773958 -1.8626738191 1.2498760489
H -8.9179902383 -1.2446277875 -0.4102154316
H -6.7236715205 -2.2324365172 0.3110955155
H -6.6685282803 -1.1063707433 1.6880352431
H 1.2057747796 -1.8799973261 1.3467328314
H -1.9806817677 3.4355879079 -3.5458667700
H -4.2059260027 2.6479672543 -2.8472704368
H 2.8239537571 4.0610444619 -1.4831178000
H 3.9226372757 3.7519522899 0.7151087907
H 3.1671232422 1.9384521584 2.2400731329
H 1.3566576558 0.3984921871 1.5266355200
H 2.0262065990 -2.1299949051 -1.6019875353
H 2.4693281576 -0.7386693909 -0.6007650982
H 0.9410080866 -3.2528021599 0.2603233864
H 2.2451469732 -3.7814686511 2.7135019597
H 2.1130121012 -4.8967903520 1.3279248975
H 3.9606760294 -5.5316821934 2.8895439715
H 4.5587882962 -5.1664416441 1.2445853516
H 5.8023835716 -1.9564952016 2.3146028469
H 5.6537469836 -3.0446966817 0.9036867377
H 4.0245003717 -1.2150631269 0.7440100019
H 3.3710721208 -1.5902083830 2.3577573923
H -2.3680223725 -0.1981465409 -0.1882760908
H -5.4960213984 1.3244461022 -1.5364850604
