59
CONF337
C 5.6236092976 2.2844655036 3.8758437343
C 4.3457254899 2.7259723385 4.5944695914
C 3.3554451938 1.6248549201 4.2039206163
C 3.6795824614 1.2896341477 2.7236152136
C 5.1120022448 1.8718113277 2.4884963427
C 2.6637408917 1.9227733509 1.7736415195
C 2.9337198210 1.6073932461 0.3267722080
O 2.6753377813 2.3947850442 -0.5723973268
N 3.4706506347 0.3456269686 0.0416262445
C 3.8174012662 -0.5925610365 1.0191192958
O 4.2580096956 -1.6861998045 0.6915792889
C 3.6270021913 -0.2128981288 2.4647990725
C 3.6716890385 -0.0402006581 -1.3712114461
C 2.5409875243 -0.9195215297 -1.9044174730
C 1.1762762076 -0.2319127900 -1.9127378897
C 0.0913595571 -1.1713700849 -2.4306547381
N -1.2173969646 -0.5226459979 -2.5950717706
C -2.1302838435 -1.4205574022 -3.3162433106
C -3.4882536633 -0.7576821853 -3.5273508599
N -4.0644362252 -0.3764112428 -2.2371525063
C -3.1652340389 0.5099034201 -1.4971306362
C -1.8084702328 -0.1602345480 -1.2994728497
C -4.9751521144 -1.1698617567 -1.5965789337
N -5.5678632831 -2.1526977660 -2.3187340130
C -6.4974658053 -2.8710139831 -1.6917967153
C -6.8612045430 -2.6575914441 -0.3671723344
C -6.1845742911 -1.6337545660 0.2856673396
N -5.2483480088 -0.8885055036 -0.2984977466
H 6.0537850375 1.4182654366 4.3943354684
H 6.3921689438 3.0617387283 3.8276778514
H 4.4650936112 2.8255061446 5.6775894374
H 4.0133905947 3.6949001676 4.2002148778
H 2.3062830789 1.9067883044 4.3381069027
H 3.5412921588 0.7382911676 4.8228513031
H 5.0474819232 2.7578632462 1.8454216950
H 5.7728026045 1.1550297399 1.9893950450
H 1.6568333075 1.5402454434 1.9971887404
H 2.6333150456 3.0112307844 1.8701516625
H 4.3885721631 -0.7508017723 3.0374897283
H 2.6489418973 -0.6116512816 2.7727739518
H 4.6234294020 -0.5719341595 -1.4320602319
H 3.7434278235 0.8834938724 -1.9474397857
H 2.8132630187 -1.2123406733 -2.9264444108
H 2.4905516227 -1.8413229320 -1.3132905032
H 1.2129722030 0.6645289623 -2.5438193328
H 0.9361009233 0.0995071624 -0.8961654193
H 0.0149876650 -2.0522783140 -1.7612286870
H 0.3933103657 -1.5481390980 -3.4168052884
H -1.6905227379 -1.6605954721 -4.2914435131
H -2.2780525163 -2.3732886743 -2.7675383838
H -4.1641530309 -1.4302398495 -4.0533262070
H -3.3621387052 0.1557589083 -4.1223682288
H -3.6057176602 0.7682759584 -0.5355744862
H -1.1476447991 0.5397267496 -0.7789367705
H -1.9358380190 -1.0535039127 -0.6539198136
H -6.9707287352 -3.6583915766 -2.2779615093
H -7.6174166868 -3.2550400967 0.1261416772
H -6.4000481044 -1.4018798983 1.3284364218
H -3.0373508163 1.4269728479 -2.0861135576
