76
CONF14
C 7.8108051530 3.3315693433 1.0362233650
C 7.5475649918 2.0928614782 1.9006034228
C 8.7744975260 1.1653794768 1.8044654096
C 7.3712917879 2.5511445046 3.3611878209
C 6.2992075901 1.3261164332 1.4564513364
C 5.9096662069 0.1686121392 2.1462337470
C 4.7786740689 -0.5489678169 1.7779835114
C 3.9880943411 -0.1428154610 0.6997542575
C 4.3660604414 1.0050424854 0.0080015906
C 5.5013528692 1.7254992236 0.3811438856
C 2.7923407407 -0.9650692624 0.2753393897
C 3.2360828966 -2.0612659175 -0.7124553777
C 2.2156633873 -3.1701418897 -1.0087024485
C 1.0844144163 -2.8142928912 -1.9755257862
N 0.1132361457 -1.8416555209 -1.4449262167
C -0.6758414291 -1.2382710135 -2.5306744930
C -1.6097687396 -0.1616335323 -1.9891270612
C -2.5637107939 -0.7487436887 -0.9445992389
C -1.7319299308 -1.4193938852 0.1510982622
C -0.7812336610 -2.4510809867 -0.4457919879
C -3.5508674487 0.3052534112 -0.3702092898
C -4.4346745759 -0.3388688897 0.6996342979
C -4.3946567235 0.0782512494 2.0304386931
C -5.1980692488 -0.5389403909 2.9893148202
C -6.0492030896 -1.5798601436 2.6329341237
C -6.0950968221 -1.9996763828 1.3042390415
C -5.2972937356 -1.3821225094 0.3474041419
C -4.4714416038 0.9178515034 -1.4370100267
C -5.0216252129 2.1829067662 -1.2023733121
C -5.8990499374 2.7617638039 -2.1140014023
C -6.2472738624 2.0841317831 -3.2803714851
C -5.7107899912 0.8228808447 -3.5212091868
C -4.8322627469 0.2440988070 -2.6074872992
O -2.8100816698 1.3477093815 0.2792394227
O 1.8092531339 -0.0958474732 -0.2757913472
H 7.9745581830 3.0643984366 -0.0130117531
H 8.7113262005 3.8372422027 1.3988277571
H 6.9808271382 4.0440163176 1.0880209599
H 8.9203978349 0.8247522127 0.7737763396
H 9.6755987756 1.7019522922 2.1219683261
H 8.6617040930 0.2847393348 2.4435346220
H 6.4979430956 3.2049789249 3.4579612564
H 7.2375159083 1.6999720633 4.0351440230
H 8.2572142625 3.1066183182 3.6887191608
H 6.4926061803 -0.1781698934 2.9942887652
H 3.7632529301 1.3448575999 -0.8277172529
H 5.7542676639 2.6149057025 -0.1848911313
H 2.3937905580 -1.4689637755 1.1755580088
H 3.5518858211 -1.5714159917 -1.6446305746
H 4.1288921223 -2.5343405514 -0.2853326993
H 1.8139896868 -3.5599379478 -0.0650277868
H 2.7547710808 -4.0071235018 -1.4690742118
H 1.5276469925 -2.3780960022 -2.8797776929
H 0.5637774832 -3.7386714871 -2.2854300491
H -1.2660415724 -2.0130042641 -3.0577443375
H -0.9991559595 0.6285852652 -1.5325924904
H -3.1590789196 -1.5346216586 -1.4279040443
H -2.3805387078 -1.9213756229 0.8764971438
H -1.1564729752 -0.6595637459 0.6932487561
H -0.1732652005 -2.8917812523 0.3505533334
H -1.3621486697 -3.2707533131 -0.9117041640
H -3.7320816029 0.8839464912 2.3208335970
H -5.1535727415 -0.2014187495 4.0205736796
H -6.6734665097 -2.0591387630 3.3805672467
H -6.7578346582 -2.8079860002 1.0103168274
H -5.3548652915 -1.7148080251 -0.6845634371
H -4.7622383801 2.7140901677 -0.2926673475
H -6.3137825717 3.7443895967 -1.9100066241
H -6.9301868395 2.5346752253 -3.9937602231
H -5.9721969225 0.2833854382 -4.4265148324
H -4.4308631915 -0.7395138370 -2.8252139368
H -2.3771416458 1.8694845011 -0.4082469520
H 0.0190311805 -0.8004760444 -3.2561747049
H 4.5019307300 -1.4382263141 2.3403255686
H 1.1094793936 -0.6810349996 -0.6990443542
H -2.1598355608 0.2854205130 -2.8233916612
