32
CONF15
C -3.6880674923 -0.6829497779 0.1629070062
C -3.6951154528 0.6624462261 -0.0707625127
C -2.4960348889 1.3967269135 -0.2180828871
C -1.2642302872 0.7017027532 -0.1087440959
C -1.2569421918 -0.7060204923 0.1511343455
C -2.4815251076 -1.4101156422 0.2801261721
N -2.5628498509 -2.7599173244 0.4725744379
C 0.0081577311 -1.4154942320 0.3157364764
O 0.0145374057 -2.6515952019 0.5717221703
C 1.2657093552 -0.6870426612 0.1784382753
C 2.4975483020 -1.3777820190 0.3103402937
C 3.6956386459 -0.6573282075 0.1004861952
C 3.6885533355 0.6755811008 -0.1957111594
C 2.4826266033 1.4053231025 -0.3055934455
C 1.2580222464 0.7109731358 -0.1296634754
C -0.0069763617 1.4230273774 -0.2802587734
O -0.0140013794 2.6538034915 -0.5613884595
N 2.5644395162 2.7464593523 -0.5433035924
N 2.5939896326 -2.6938895154 0.6616751337
N -2.5893900609 2.7430591738 -0.4192167531
H -4.6295603106 -1.2175106682 0.2582220795
H -4.6419797656 1.1905816385 -0.1467241116
H -3.4395451562 -3.1337722944 0.7918740092
H -1.6931712148 -3.2259664635 0.7033226855
H 4.6423349454 -1.1835336286 0.1907432998
H 4.6296534120 1.1999939410 -0.3390978021
H 1.6925299050 3.2161228422 -0.7563459830
H 3.4402450254 3.1151859639 -0.8698697279
H 1.7261509599 -3.2172531799 0.6541209045
H 3.4696234170 -3.1588354041 0.4961623192
H -3.4807407922 3.1192913131 -0.6900545599
H -1.7296301257 3.2187283920 -0.6647686822
