33
CONF165
C -0.5445962720 -2.5250907135 1.6041696022
C -1.9304785411 -1.9856752221 1.9415674077
C -2.4825789038 -1.0115335729 0.9073079308
S -1.4713492877 0.5530367783 0.8155509468
P -0.7435320177 0.4326951994 -1.1554940827
O -0.9854642805 -0.8601281182 -1.8299952009
O -1.2705799817 1.6864737286 -1.9857111349
C -1.1053134821 3.0521160090 -1.4985129135
C -1.8665124021 3.9581428179 -2.4364977647
O 0.8337082525 0.8750002880 -1.0033179448
C 1.6933363752 0.0864211802 -0.2681073321
C 2.0259572514 -1.1948689535 -0.6940632861
C 2.9122534731 -1.9712783449 0.0412200289
C 3.4630393170 -1.4450767204 1.2029355166
C 3.1575916244 -0.1635998809 1.6423231758
C 2.2665978763 0.6002277518 0.8965962574
Cl 1.8672078607 2.2108105754 1.4248460453
Br 4.6783969052 -2.5023347082 2.2275915274
H -0.5263183648 -2.9548985454 0.5972642639
H 0.2042500699 -1.7287742270 1.6385433722
H -0.2438572069 -3.2988658688 2.3161483732
H -2.6493383218 -2.8145861521 1.9991372663
H -1.9232979159 -1.5144702935 2.9318967330
H -3.4974044231 -0.6925879379 1.1594983354
H -2.4842549675 -1.4510214047 -0.0936522693
H -1.5003448394 3.1117945170 -0.4768757274
H -0.0357019563 3.2855283968 -1.4811518459
H -2.9285905124 3.7008609883 -2.4448899369
H -1.7609310021 4.9957418366 -2.1059066081
H -1.4771985661 3.8756425737 -3.4543347345
H 1.5630377947 -1.5779200954 -1.5965721495
H 3.1663531874 -2.9718049548 -0.2859669588
H 3.5959112568 0.2400232902 2.5458804875
