22
CONF1
C -2.4384796574 1.2671774678 0.0138540132
C -1.2406679311 0.4132285851 -0.3397751763
C -1.2612527213 -0.9229136173 0.4093189267
N -0.0184400206 -1.6373427390 0.1552679493
C 1.2163607520 -0.8929342328 0.3950217625
C 1.1420678044 0.4455258233 -0.3493304021
O -0.0574325220 1.1458943557 0.0150311940
C 2.3184011267 1.3335444617 -0.0060017785
N -0.0920266852 -2.8307614390 -0.3963489100
O 0.9836164629 -3.3857751622 -0.6627627776
H -2.4008335758 2.2138412413 -0.5312704857
H -2.4525512136 1.4775989800 1.0879052985
H -3.3629197194 0.7476087208 -0.2540680584
H -1.2174587136 0.2065992223 -1.4228450845
H -2.0938490261 -1.5476487839 0.0752682563
H -1.3516769504 -0.7335299502 1.4875358321
H 2.0595773349 -1.4921120077 0.0464116973
H 1.3123231990 -0.7112327403 1.4736146758
H 1.1156864162 0.2401854698 -1.4322442276
H 2.2486663988 2.2790087792 -0.5501636546
H 2.3361499943 1.5434476076 1.0680937298
H 3.2547389563 0.8405903441 -0.2825126688
