38
CONF17
C 2.6254900639 -1.5108213145 -1.5991579346
C 2.5200155188 -0.9123421202 -0.2386760702
N 1.3221315065 -0.9621758661 0.3588040678
C 1.2697893239 -0.4160113124 1.5805992782
N 2.2934723380 0.1421351659 2.2310541532
C 3.4366443601 0.1204335751 1.5414064302
N 3.6162476570 -0.3801210338 0.3117901812
O 4.4632628007 0.6666713644 2.1842456658
C 5.7477435646 0.6901935526 1.5109476068
N 0.0685628312 -0.4000623938 2.2593537726
C -1.2073078081 -0.8278483951 1.8839610837
O -2.1640848154 -0.6085571168 2.6089533368
N -1.2757450436 -1.5055452807 0.6839732996
S -2.7690489882 -1.8307921636 -0.0563080823
O -3.5651559232 -2.6733849203 0.8382067218
O -2.4199787113 -2.3217512960 -1.3910701887
C -3.6083482821 -0.2523481181 -0.1545290094
C -3.1672825780 0.8802074496 -0.8199202035
S -4.3520899735 2.1423556172 -0.6751918722
C -5.3966540834 1.1433107039 0.2555438278
C -4.8732025144 -0.1054886162 0.4587126310
C -1.9082643961 1.1146059839 -1.5366900829
O -1.0008507184 0.3100646560 -1.6175906573
O -1.8818394627 2.3432009768 -2.0822282570
C -0.6655637981 2.6794587419 -2.7968837626
H 2.5845825711 -2.6028489096 -1.5119144079
H 1.7738584699 -1.2033791190 -2.2116717857
H 3.5632174869 -1.2274970711 -2.0763566422
H 6.0845365759 -0.3272831149 1.3017797688
H 6.4184975501 1.1800246695 2.2154344976
H 5.6787363044 1.2609822239 0.5826629843
H 0.0896045864 0.0509646074 3.1656479006
H -0.4473464035 -1.4472530667 0.0686802057
H -6.3429792973 1.5301047300 0.6110141237
H -5.3620767152 -0.8876854280 1.0230289064
H -0.8143956380 3.6986076136 -3.1496560001
H -0.5255568805 1.9945539204 -3.6362509708
H 0.1913772201 2.6228565149 -2.1217045213
