38
CONF133
C 0.2096654285 3.8955810839 -2.1693285219
C 0.4563536116 2.5737220735 -1.4496965730
C -0.7693130571 1.6688550897 -1.5407819956
N 0.8005033552 2.8684913103 -0.0454890211
C 1.2182874993 1.7072785616 0.7576407331
C 0.0930807098 1.3006921615 1.7103980556
O -0.2627290373 2.3951505928 2.5502486688
C 0.5118546154 0.1640920949 2.6322789297
O 0.8733497840 -1.0006203888 1.8830705691
C -0.1143464616 -1.7067847417 1.2557357293
C -1.4793548762 -1.5809900754 1.4862339049
C -2.3983121000 -2.3851633535 0.7864738128
C -1.9977640384 -3.3235179678 -0.1490959543
C -0.6234878117 -3.4389594992 -0.3688745296
N 0.0794061078 -4.2599809803 -1.2217436009
C 1.4325884461 -4.0101915053 -1.0955236658
C 1.6261042291 -3.0262071499 -0.1635553714
C 0.3325588729 -2.6478606889 0.3119852754
H -0.0146953872 3.7221556762 -3.2256721167
H -0.6370298761 4.4205972308 -1.7151355300
H 1.0871823784 4.5500534864 -2.1168686369
H 1.2969024669 2.0526042818 -1.9486726236
H -1.0405466303 1.5159424443 -2.5898709932
H -1.6198467696 2.1276369620 -1.0245109859
H -0.5883349133 0.6824221987 -1.1033647751
H 1.5423596550 3.5576192518 -0.0453932032
H 1.5141400593 0.8492068008 0.1339922868
H 2.0869704323 1.9836085986 1.3700035392
H -0.7778250948 0.9812204384 1.1202307664
H -0.3377294227 3.1499761793 1.9461086519
H 1.4146756851 0.4440021183 3.1838885637
H -0.2772031238 -0.0544128839 3.3625398489
H -1.8585499286 -0.8625304453 2.2021056810
H -3.4559387584 -2.2570856980 0.9926083283
H -2.7179615636 -3.9345889303 -0.6821701293
H -0.3296020828 -4.9394219297 -1.8377597961
H 2.1504210312 -4.5611458527 -1.6853829128
H 2.5741664861 -2.6214460578 0.1530165050
