39
CONF37
C 2.5408701378 2.6350919280 -2.0894275356
C 3.3633711516 1.4197313369 -1.6645242778
C 3.2300383878 1.0680504273 -0.1786424944
C 1.8082366788 0.7795524642 0.2492040810
C 1.6334025485 0.2708433705 1.6914496196
O 0.6606196170 -0.7857574655 1.5868542775
C 0.2119795352 -0.8097754281 0.2298245561
C -0.0155246508 -2.2738271501 -0.1654508878
N -1.1550983249 -2.8336280209 0.5309031898
C -1.2569799801 -3.2264541393 1.8225916203
N -2.5075449711 -3.5477252167 2.1076264638
C -3.1484661362 -3.3131382488 0.9278536169
N -2.3762388147 -2.8741234626 -0.0571068252
O 1.2895328390 -0.3177638957 -0.5265294791
C -1.0542828452 0.0387287219 0.0797744469
C -1.5814959581 0.4309452570 -1.1550860253
Cl -0.8160278401 -0.0001674271 -2.6740743880
C -2.7538415616 1.1726784059 -1.2501589425
C -3.4240635767 1.5152730236 -0.0843908912
Cl -4.9023069830 2.4443965351 -0.1996883978
C -2.9479476773 1.1311864824 1.1610280314
C -1.7706967616 0.3988731804 1.2228713174
H 2.7588421226 3.5045599823 -1.4586438840
H 2.7628391667 2.9098422182 -3.1245723346
H 1.4667960049 2.4332311266 -2.0323129618
H 4.4235016403 1.6004979829 -1.8772274095
H 3.0668754107 0.5502562921 -2.2613744625
H 3.6015641139 1.8994608877 0.4362726440
H 3.8473709315 0.1913475818 0.0537372288
H 1.1664561770 1.6584313866 0.0876756684
H 1.2685757117 1.0558456217 2.3644643693
H 2.5596088437 -0.1574713668 2.0918248306
H -0.2064848778 -2.3415248759 -1.2375310002
H 0.8899677462 -2.8327963462 0.0863770421
H -0.4080954680 -3.2576455332 2.4918657528
H -4.2087059713 -3.4746627079 0.7852090038
H -3.1387158026 1.4658761098 -2.2184762896
H -3.4882035709 1.3933607697 2.0624047770
H -1.3897267652 0.0784009702 2.1854058383
