36
CONF341
C 7.7269115995 4.2403916838 -2.6939910960
C 7.1979614120 2.9990817586 -2.0751531687
C 5.9056103800 2.7626333789 -1.8175852733
C 5.4727963537 1.5049747429 -1.1969902115
O 6.1846801280 0.5729509212 -0.8657197128
O 4.1254309168 1.4992332985 -1.0245925162
C 3.5822270472 0.3096715546 -0.4069319881
C 2.0840805295 0.5561447032 -0.3055135696
C 1.3844136751 -0.6249998507 0.3222322307
C -0.1418167574 -0.3866850158 0.5425307491
C -0.9684857559 -1.6719832880 0.8964649871
C -2.3536207678 -1.3557429108 1.5628710857
C -3.3549409544 -2.5603620233 1.5139439926
C -4.5529571627 -2.4322402643 2.5121034603
F -5.1350802185 -1.2309283186 2.3887494630
F -4.1458640580 -2.5959833527 3.7750271125
F -5.4545089781 -3.3817041785 2.2281924763
F -3.8695852224 -2.6524021917 0.2690266532
F -2.6980070964 -3.7061643931 1.8086780272
F -2.1445444460 -1.0202711002 2.8567859323
F -2.9236430518 -0.3083522800 0.9236690119
F -0.2570830749 -2.4442522277 1.7477304244
F -1.1915544281 -2.3678430069 -0.2439293410
F -0.6626928614 0.1423991449 -0.5922063969
F -0.2864699100 0.5185182792 1.5445537452
F 1.9367583481 -0.9209844307 1.5401576186
F 1.5153432200 -1.7458164497 -0.4602424584
H 6.9339370216 4.9553284180 -2.9249112397
H 8.2736211166 3.9995625113 -3.6139504160
H 7.9230818763 2.2290749593 -1.8130317507
H 4.0401931523 0.1721667288 0.5763378055
H 3.8091375547 -0.5592226344 -1.0318416035
H 1.6604617809 0.7229728734 -1.2992453795
H 1.8873896807 1.4405796198 0.3090749056
H 5.1363412912 3.4919133343 -2.0550851642
H 8.4549021483 4.7142377124 -2.0240706053
