35
CONF33
C -5.8569992997 -0.0059103474 0.7177165826
C -4.5401029293 0.3559409653 0.0469235125
C -4.5200137179 -0.2201362852 -1.3739185420
O -5.0828306090 0.3159147473 -2.2915936856
O -3.8824474173 -1.4008771036 -1.5129780917
O -3.4898107491 -0.1857680193 0.8602526289
C -2.2163837390 0.3216509929 0.6880314007
C -1.8319084249 1.1335936650 -0.3767109119
C -0.5102117823 1.5708252602 -0.4560458411
C 0.3977591027 1.1946408417 0.5155831614
C 0.0191463453 0.3860214072 1.5803230830
C -1.2914743920 -0.0522551887 1.6650569796
O 1.6917512287 1.7216526368 0.4562469847
C 2.7199079644 0.8859569052 0.1480213392
N 2.4669924788 -0.3666000077 -0.1892273364
C 3.5087702218 -1.1481298396 -0.4969342725
C 4.8210823625 -0.6999332844 -0.4754757374
C 5.0672153945 0.6306804384 -0.1157088214
C 4.0045865682 1.4464816019 0.2027353427
C 5.9693133401 -1.5977995469 -0.8066147753
F 6.7633519192 -1.8153652129 0.2749354190
F 5.5658762914 -2.8057302020 -1.2545489473
F 6.7680018890 -1.0567072628 -1.7615538033
H -5.9535452820 -1.0913027610 0.8107949104
H -5.8976747321 0.4393652724 1.7141994559
H -6.6865708557 0.3732853657 0.1170111576
H -4.4374650030 1.4445630922 -0.0322973400
H -3.4740029170 -1.6296016963 -0.6607542024
H -2.5276210234 1.4239101732 -1.1549952546
H -0.1866338245 2.1993757891 -1.2779094358
H 0.7484200206 0.1050588405 2.3316893442
H -1.6201886241 -0.6797907170 2.4859852540
H 3.2767743092 -2.1727745761 -0.7744087024
H 6.0828886644 1.0120643249 -0.0902692503
H 4.1340472164 2.4837945636 0.4864382838
