38
CONF8
C 0.7702341718 -2.7511742186 2.4111036903
C 0.4122120557 -1.9385294964 1.1720190696
C 0.4968513554 -0.4362751219 1.3229775103
C 0.1954335468 0.3988964651 0.2280798958
C 0.2276459910 1.7964577958 0.3307845043
C 0.6027775297 2.3552529351 1.5567287832
C 0.9240513053 1.5525424431 2.6379520224
C 0.8671581520 0.1662508704 2.5226575417
C -0.1360989822 2.7143418243 -0.8100743982
C -1.4266149618 3.5012934247 -0.5426133460
N -0.1655260825 -0.2071561760 -1.0253099277
C -1.5892032885 -0.2774618476 -1.3781169873
O -2.2655387327 -1.3938367275 -0.8476658469
C -2.0065075490 -2.6097261388 -1.5538684562
C 0.7648798219 -0.6542374224 -1.9345982113
O 0.4642371976 -1.1931494736 -2.9894001847
C 2.2307908561 -0.4409826590 -1.5751533585
Cl 2.7599147863 1.1991577907 -2.1542422866
H 0.6762745944 -3.8186920264 2.1944945277
H 1.7994673597 -2.5671200830 2.7355324327
H 0.1028285656 -2.5231686993 3.2479475488
H -0.6063211813 -2.1826864047 0.8502724957
H 1.0589789583 -2.2543567379 0.3413969110
H 0.6521745678 3.4364946333 1.6501758295
H 1.2215861688 2.0032007930 3.5795060101
H 1.1114693599 -0.4474366230 3.3816768382
H 0.6889822370 3.4193819790 -0.9638869067
H -0.2275328476 2.1492307158 -1.7408586165
H -1.6620636296 4.1527105019 -1.3894359103
H -2.2771313631 2.8319902908 -0.3807034956
H -1.3301997951 4.1268325228 0.3494941593
H -1.6557193578 -0.2586828436 -2.4740017590
H -2.0798795268 0.5953293055 -0.9410477138
H -2.6523859741 -3.3682957031 -1.1061667317
H -2.2429102075 -2.5034439791 -2.6205051542
H -0.9579326856 -2.9186228467 -1.4615681584
H 2.4330610423 -0.4764370039 -0.5043259897
H 2.8205573460 -1.1778923654 -2.1192561407
