43
CONF17
C -3.1548478782 1.0805642096 -4.2181610835
N -3.2349043870 1.1585081474 -2.7569661856
C -2.6477436960 0.3973612903 -1.8040566746
C -3.0468839163 0.8895064577 -0.5535601355
C -3.8850954214 1.9678990693 -0.9000117952
N -3.9879088023 2.1289025628 -2.2149974481
Cl -4.7045285970 3.0746427791 0.1325100243
C -2.5938585904 0.4224880348 0.7638444604
O -1.5567950595 -0.1870843961 0.9479335461
O -3.4526823708 0.7607337024 1.7319734866
C -3.0532453120 0.3879510976 3.0774077750
S -1.6677881979 -1.0596455495 -2.1545819478
O -2.0956736755 -2.1370790385 -1.2624016899
O -1.6697665366 -1.2645650073 -3.6013435667
N -0.1092639022 -0.6677988639 -1.6486860762
C 0.4916526662 0.5096102474 -2.0638019068
O 0.0452347562 1.2080567318 -2.9646707945
N 1.6547255442 0.8541572214 -1.3990015909
C 2.2934949903 0.2788166585 -0.3007570468
N 3.3992231751 0.9054389566 0.0817548229
C 4.0297237601 0.3762684768 1.1434325298
C 3.5677721113 -0.7523786184 1.8122930526
C 2.3940693772 -1.3119951101 1.3051846077
N 1.7476615588 -0.8111274316 0.2503990480
O 1.9167349820 -2.3971051397 1.9174091144
C 0.7040260306 -2.9914221914 1.3904837216
O 5.1374874283 1.0515271380 1.4765719258
C 5.9031556286 0.5746358348 2.6033787967
H -3.6792809473 1.9546852589 -4.6012540433
H -2.1089964101 1.0942398238 -4.5251385325
H -3.6347891845 0.1667176158 -4.5716750190
H -2.1017395788 0.8618460390 3.3285669247
H -3.8506804073 0.7541336337 3.7217962558
H -2.9615584131 -0.6978778986 3.1516296504
H 0.2091199407 -1.0590792529 -0.7465182433
H 2.0900151287 1.6966595071 -1.7528848349
H 4.0580025860 -1.1955636086 2.6666647220
H 0.5080019233 -3.8450432149 2.0379285709
H -0.1217450999 -2.2771215213 1.4367969547
H 0.8599674059 -3.3233910653 0.3603287318
H 5.3000396977 0.6033166034 3.5161106846
H 6.2653434343 -0.4412593166 2.4178414028
H 6.7443251578 1.2608704922 2.6900324270
