82
CONF51
C -2.8044025452 3.1168071945 -0.6026543598
C -2.0861167158 2.3771880970 0.4923842445
C -1.0550974105 2.9353214742 1.1396040671
C -2.6054288109 1.0158297601 0.8912546944
C -3.9240982448 1.1150317700 1.6869140147
C -4.3833876254 -0.3390643224 1.7599894347
C -4.0192147948 -0.9639243273 0.3878951367
C -2.9865372129 0.0275296477 -0.2452101242
C -1.8958412311 -0.6948939961 -1.0706549439
C -0.9781879107 0.2903145067 -1.7985132385
C 0.2268641843 -0.4299691169 -2.3855014644
C 1.1692691498 -0.9855982439 -1.2941648509
C 2.3807613834 0.0301958408 -1.0378876187
C 2.0006725182 1.5312696933 -1.0814702822
C 3.2040843170 2.4532403461 -0.8473617130
C 3.9067536501 2.2140185901 0.4833288364
C 4.2395435110 0.7147306994 0.7146435112
C 3.0343564764 -0.2233393769 0.3492863365
C 1.9665959926 -0.1824304658 1.4781911371
C 0.5192384385 -0.4720405498 1.0682185907
C 0.3977949889 -1.5280662872 -0.0296847713
C -1.1136849418 -1.8779142470 -0.3748255735
C -1.9237820249 -2.3134882953 0.8719062740
C -3.4213830521 -2.3718507844 0.5691779981
C -1.1229619047 -3.1006717136 -1.3361809266
C 1.0945865610 -2.8113343602 0.4734969226
C 5.5061834460 0.3935927199 -0.1087245723
C 4.6579272945 0.4849277521 2.1803764342
O 3.0528023011 2.7960422844 1.4939489991
C 3.3355538954 -0.2859944848 -2.2132482536
C -5.2548941424 -1.1097872970 -0.5073872434
O -5.9979522904 0.1016315601 -0.7097435315
H -2.6466984559 2.6342176872 -1.5734411109
H -2.4505683051 4.1484218308 -0.6728498986
H -3.8871090228 3.1308856542 -0.4332914553
H -0.5315703591 2.4061845326 1.9322119668
H -0.7061174231 3.9349541168 0.8933948460
H -1.8710652546 0.5530691676 1.5572709814
H -3.7728298594 1.5745731153 2.6690536653
H -4.6487250114 1.7241354999 1.1344633541
H -3.8225381048 -0.8517074089 2.5509974039
H -5.4472047194 -0.4526643903 2.0033295481
H -3.5445768930 0.6292745738 -0.9756844812
H -2.4753566450 -1.1873042925 -1.8646698438
H -1.5485321563 0.7872488580 -2.5935752990
H -0.6447191936 1.0793003507 -1.1205336163
H 0.7780259261 0.2385102599 -3.0525322078
H -0.1320395639 -1.2418550582 -3.0278200802
H 1.6646453415 -1.8656701222 -1.7229343130
H 1.2482735310 1.7561994731 -0.3188668029
H 1.5570876633 1.7932649558 -2.0472726960
H 3.9327721376 2.3536139882 -1.6572874484
H 2.8717942981 3.4978152075 -0.8690544052
H 4.8634003367 2.7633660328 0.4886819625
H 3.4619444011 -1.2350973909 0.3163840834
H 2.2692010461 -0.8911578074 2.2565474561
H 1.9759056881 0.8035341529 1.9458811309
H 0.0453576297 0.4500869833 0.7299044725
H -0.0196574489 -0.7824354672 1.9698301258
H -1.5803443424 -3.2950684992 1.2147937503
H -1.7749558894 -1.6234287011 1.7083390103
H -3.5946146683 -2.9743587830 -0.3316097401
H -3.9545162144 -2.8793961379 1.3827428278
H -0.3742409405 -3.0167222000 -2.1264581998
H -2.0961717004 -3.2107369290 -1.8220786110
H -0.9238102947 -4.0286551331 -0.7925583565
H 1.1210204820 -3.5866701159 -0.2954225613
H 0.5848262013 -3.2169730592 1.3539651283
H 2.1278368044 -2.6134336336 0.7602790634
H 5.4675262081 0.7603838636 -1.1332093768
H 5.6736071190 -0.6878983977 -0.1429138551
H 6.3781200140 0.8547220413 0.3678847134
H 4.9741884474 -0.5559803263 2.3162788419
H 3.8642403564 0.6830046754 2.9031160168
H 5.5121325753 1.1266255021 2.4281398999
H 3.5110349344 2.7333252869 2.3404831986
H 3.8784722069 -1.2186263990 -2.0246238460
H 4.0678210511 0.4932466783 -2.4177213683
H 2.7586535803 -0.4202936121 -3.1339595234
H -4.9394561180 -1.4310819444 -1.5077445263
H -5.9118778348 -1.8913342282 -0.0933415492
H -6.4086106786 0.3412817888 0.1300793437
