48
CONF50
C -4.7060211236 -0.6547152579 -0.9463685715
C -4.3039863450 0.7367311826 -0.4377469140
C -5.5182433957 1.3684444136 0.2637697196
C -3.9040518640 1.6277179425 -1.6224173984
C -3.1595924839 0.6971426690 0.6163050584
C -1.7522759169 0.4041304057 0.0653142036
N -1.5990671097 -0.9369575704 -0.4873006475
C -1.1683800342 -1.3075342452 -1.7128919128
N -1.1859979295 -2.6281161860 -1.8227089312
C -1.6420472790 -3.0292201847 -0.6021363195
N -1.9022231073 -2.0421303572 0.2433602652
O -0.8566316672 0.5796628466 1.1576051894
C 0.4997246094 0.4842823811 0.9201132857
C 1.2701318458 0.0640732933 2.0038866924
C 2.6489038722 -0.0194499078 1.8814049118
C 3.2910148720 0.2976801446 0.6750934469
C 2.4958363093 0.7168114496 -0.3981175981
C 1.1125258951 0.8167624545 -0.2870337894
C 4.7584268115 0.1925948111 0.5417755607
C 5.6030251219 0.5299380400 1.6096009968
C 6.9848252779 0.4293468048 1.4843612868
C 7.5524842649 -0.0084976477 0.2893057856
C 6.7244288233 -0.3457055354 -0.7797048719
C 5.3423473961 -0.2474267842 -0.6552012895
O -3.4711177193 -0.1300198188 1.7322361721
H -3.9266413597 -1.1190678484 -1.5572091429
H -5.5980330557 -0.5585740926 -1.5741222160
H -4.9525747134 -1.3278612619 -0.1191807100
H -5.8292866273 0.7718516212 1.1258811172
H -5.2859468153 2.3821796802 0.6094318715
H -6.3591820180 1.4297065250 -0.4343634394
H -3.5169252504 2.5951988579 -1.2810596569
H -3.1478607881 1.1537097643 -2.2567847227
H -4.7821599963 1.8182584005 -2.2478025641
H -3.0720213257 1.7162490264 1.0167176335
H -1.5333252635 1.0998137453 -0.7496705262
H -0.8714704986 -0.5933850991 -2.4702316413
H -1.7821844644 -4.0668352178 -0.3265200510
H 0.7747626783 -0.2018645412 2.9320678492
H 3.2322634218 -0.3683492010 2.7277641959
H 2.9635900468 0.9985582500 -1.3363315678
H 0.5419839842 1.1759497139 -1.1353705637
H 5.1741170210 0.8949675639 2.5379721383
H 7.6209405061 0.7030750570 2.3206997577
H 8.6307332983 -0.0866294675 0.1919387233
H 7.1557940314 -0.6967237851 -1.7123290252
H 4.7074659401 -0.5366996305 -1.4872499205
H -3.2580758545 -1.0469761001 1.4932477329
