29
CONF7
C -3.5163899492 -1.7117482477 -1.6664791761
C -4.0562454863 -0.5849179364 -0.8178584987
O -3.1719466662 -0.2914266395 0.3202066470
P -1.7939923867 0.4893796255 0.1618814582
S -1.6825364493 1.8236888819 -1.2404890889
O -1.4675185487 0.9101016578 1.6604840407
C -2.0769845742 2.1178810850 2.2418962025
C -1.5231760608 2.2651495522 3.6362915668
O -0.7717504563 -0.7981945031 0.0076104562
C 0.5595882031 -0.6897332475 -0.2442343967
N 1.2102797514 0.3956242675 0.1298378932
C 2.5061690030 0.4967593584 -0.0914493788
Cl 3.2741007502 1.9761923950 0.4289426126
C 3.2432222334 -0.5168176593 -0.7044985536
Cl 4.9502274560 -0.3803062823 -0.9861625182
C 2.5690301868 -1.6690133350 -1.0971247060
C 1.2059973273 -1.7615492499 -0.8706483448
Cl 0.3230641278 -3.1764442999 -1.3531311309
H -3.3392895145 -2.6059960897 -1.0624413341
H -4.2541565911 -1.9532410729 -2.4381626891
H -2.5841230245 -1.4264444702 -2.1625207949
H -4.1882351072 0.3363962238 -1.3929774335
H -1.8156648331 2.9693081760 1.6060804472
H -3.1636474838 1.9842700636 2.2450476766
H -1.7781579912 1.3985345439 4.2519874127
H -0.4362391393 2.3808328889 3.6110154123
H -1.9571012029 3.1578425943 4.0963735940
H 3.1028764552 -2.4800282759 -1.5786090203
H -5.0018635261 -0.8513450991 -0.3424133465
