28
CONF108
O -1.7521350476 2.3713508199 -1.0723800507
C -2.4708161510 1.2316470652 -1.5127056023
C -2.1056223903 -0.0370591693 -0.7668297320
O -0.7582718977 -0.3993762162 -1.1341743908
C -0.1339333685 -1.0909184850 -0.0691021171
C -1.0006508261 -0.8971225697 1.1890448552
C -2.1067919960 0.0793257458 0.7601932475
O -3.4036627925 -0.2865762018 1.2326045744
N 1.2623868095 -0.6335176091 0.0386791776
C 2.2931785959 -1.4879272790 -0.2757072532
C 3.5936158743 -1.1352816327 -0.2288550354
C 3.9685729339 0.2088879013 0.1514818588
O 5.0969375709 0.6581385791 0.2357661516
N 2.8498895431 1.0267384873 0.4313576219
C 1.5128848956 0.6979184013 0.3829084484
O 0.6250341451 1.5002413623 0.6281820004
H -0.8389003248 2.1035049090 -0.8932265123
H -3.5350990563 1.4332480348 -1.3436895566
H -2.3247542133 1.0560317315 -2.5905247578
H -2.7997878705 -0.8434171105 -1.0566085827
H -0.0512434436 -2.1575443376 -0.3207654086
H -0.4167569134 -0.5364540065 2.0374044962
H -1.4653159161 -1.8491414215 1.4621298429
H -1.8560794108 1.1035142982 1.0493078220
H -3.5899543391 0.2197284267 2.0286481875
H 1.9834786982 -2.4866603734 -0.5661036805
H 4.3768934769 -1.8362873042 -0.4794943369
H 3.0469040282 1.9870085467 0.6824587324
