47
CONF5
C -0.5484280305 -0.1390285505 3.0170381049
C -1.5525411256 0.7327482110 2.2661769193
C -0.8594523863 1.7610922151 1.3724791359
C -1.8103415394 2.6187954349 0.5655112661
O -2.5401633261 1.7238515929 -0.3332190823
C -2.9098264869 2.1886522982 -1.5238348282
O -2.8108519058 3.3399368468 -1.8993276548
C -3.5315197312 1.0982507860 -2.3984077838
C -5.0488435401 1.1797241641 -2.3193918521
O -3.1653595681 -0.2212755849 -1.9828290189
C -1.8347448857 -0.5494785071 -1.9673004519
C -0.8311891481 0.1936799830 -2.5914315160
C 0.4956421923 -0.2224046093 -2.4877992777
C 0.8001926386 -1.3668086043 -1.7726790075
C -0.1924146456 -2.1257971197 -1.1659770597
C -1.5131078096 -1.7132068883 -1.2623207904
O 2.1329830396 -1.8029945106 -1.7212238080
C 2.8684418992 -1.4821231339 -0.6235099023
C 4.1778718834 -1.9820886649 -0.5885364707
C 4.9485923853 -1.6730245363 0.5104410970
C 4.3942715113 -0.8875311350 1.5295264706
C 3.0889929683 -0.4391193635 1.3913267018
N 2.3308889652 -0.7321142099 0.3269302464
C 5.2170111847 -0.5188164468 2.7184355194
F 5.9601592371 -1.5644461562 3.1640884681
F 4.4644611094 -0.0920004854 3.7583042599
F 6.1016410901 0.4811972904 2.4417613992
H 0.0749809450 -0.7015499534 2.3125419006
H 0.1168598765 0.4722190241 3.6373261261
H -1.0534766356 -0.8581235857 3.6692607717
H -2.2019171829 0.0958791977 1.6539684247
H -2.2039862778 1.2565584556 2.9778824194
H -0.2523567709 2.4376269833 1.9881582419
H -0.1691496791 1.2541919665 0.6845138497
H -1.2821040497 3.3626841198 -0.0356782093
H -2.5495785044 3.1234162762 1.1972847342
H -3.2010076179 1.2847388586 -3.4280691816
H -5.3862108157 1.0034810532 -1.2941877896
H -5.4884002993 0.4267885241 -2.9778203507
H -5.3814358677 2.1688291631 -2.6422474317
H -1.0535539511 1.0934359084 -3.1531191245
H 1.2889751168 0.3499986930 -2.9570299369
H 0.0705926508 -3.0213520132 -0.6125812218
H -2.3071839332 -2.2782231086 -0.7854769102
H 4.5540895617 -2.5904939173 -1.4023046862
H 5.9674885700 -2.0386802775 0.5848113701
H 2.6250079049 0.1757042272 2.1585352372
