36
CONF2
C 0.5465899256 0.4707611167 -2.1857055285
N 0.3939011429 -0.4852920059 -1.0643257635
C 0.3743760144 0.1234951521 0.2321305958
C 1.5284904193 0.3361149211 0.9484807877
C 2.8406336084 -0.0969473577 0.4665196056
C 4.0164296837 0.4517450889 0.9906898385
C 5.2522253618 0.0515857881 0.4996474686
C 5.3397466247 -0.8932365698 -0.5213034286
C 4.1834180039 -1.4605297137 -1.0485170515
C 2.9553986702 -1.0676141046 -0.5401158768
S 1.4447687192 -1.8319721997 -1.1246351190
O 0.9728910049 -2.7837606480 -0.1217757085
O 1.6162673141 -2.2132027507 -2.5283447236
O 1.5286547281 0.9380557168 2.1348119667
C -0.9126977018 0.5124040975 0.7997931214
O -0.9775931597 1.1616789373 1.8661433507
N -2.0074528673 0.1156471165 0.0896155996
C -3.3660461539 0.3332308313 0.3458335029
C -3.8477337267 1.0826866239 1.4259741975
C -5.2231839925 1.2163813401 1.5442503108
C -6.0639361686 0.6167270941 0.6121959694
C -5.4771231616 -0.1048267961 -0.4205926009
N -4.1593762112 -0.2486492599 -0.5613101302
H 0.4782057049 -0.0666261739 -3.1325006976
H -0.2756928247 1.1887271853 -2.1184088972
H 1.4984189374 1.0173212690 -2.1321569108
H 3.9431726896 1.1939853773 1.7767166989
H 6.1571466325 0.4852910090 0.9118557077
H 6.3090113901 -1.1917037175 -0.9061828278
H 4.2256226271 -2.2002092686 -1.8406927331
H 0.5662968256 1.1915008224 2.2988729573
H -1.8271935488 -0.4838296184 -0.7079889320
H -3.1662502004 1.5294695147 2.1346605146
H -5.6345936058 1.7889995161 2.3693855187
H -7.1421334841 0.7031954690 0.6821157747
H -6.0906596288 -0.5936804156 -1.1751358539
