46
CONF132
C -0.1497407889 -1.9644734928 0.4589773929
C -1.6451250803 -1.9621908623 0.2564247622
C -2.5850992910 -1.9025309063 1.4329693417
C -2.4538247168 -0.6869656046 0.4912912776
C -1.8108234383 0.5615386885 0.9330557122
O -0.9991491506 0.6995038445 1.8275814371
O -2.2515777280 1.5944769304 0.1631619590
C -1.6852880616 2.8911232115 0.4390365174
C -0.3801509360 3.1260040458 -0.2795838907
C 0.2909988157 2.1097289278 -0.9499721424
C 1.4995624548 2.3904607679 -1.5834145472
C 2.0464554907 3.6649274492 -1.5785472482
C 1.3616995473 4.6808733535 -0.9127566392
C 0.1619890965 4.4163263962 -0.2637675575
O 2.1510530799 1.3987058418 -2.3039540176
C 2.5360120829 0.2512483667 -1.6350471941
C 2.8379770041 0.2412393647 -0.2742577812
C 3.2840438056 -0.9418199010 0.3092113580
C 3.4303422548 -2.1001030425 -0.4501230317
C 3.1247274636 -2.0717300968 -1.8099402307
C 2.6741070900 -0.8996442236 -2.4085132751
C -2.1017501495 -1.8598132755 2.8144665072
C -2.8121391349 -2.2315272814 3.8797177001
Cl -2.1508264721 -2.1976329226 5.4954672033
Cl -4.4632809228 -2.7899722898 3.8168732394
C -2.0959253651 -2.7952273584 -0.9237019403
H 0.1879694509 -2.9829308586 0.6798612872
H 0.3468806908 -1.6396549109 -0.4617002561
H 0.1796994892 -1.3063623290 1.2623507619
H -3.5295731218 -2.4196293391 1.2951438095
H -3.2906276925 -0.5375658871 -0.1822453093
H -1.5502321460 3.0083778543 1.5194922394
H -2.4385438493 3.6058763878 0.0976277538
H -0.1065781343 1.1014022695 -0.9957208806
H 2.9869403806 3.8505515060 -2.0859124206
H 1.7733061715 5.6850592706 -0.8996993297
H -0.3628682094 5.2140966335 0.2542558763
H 2.7287798574 1.1430065352 0.3183801955
H 3.5197513667 -0.9519322309 1.3689863857
H 3.7766202690 -3.0177531778 0.0136765801
H 3.2311483254 -2.9690520876 -2.4116978058
H 2.4309543290 -0.8622035444 -3.4653355496
H -1.0936170658 -1.5133003958 3.0076937055
H -3.1834802810 -2.7800720118 -1.0358922259
H -1.7757072269 -3.8342698157 -0.7894840210
H -1.6450882517 -2.4161698151 -1.8474121169
