78
CONF675
C -1.4616940706 -1.5705158744 0.1647142325
C -1.2834216810 -2.9773035362 0.7199034259
O -2.5166084405 -3.2038881268 1.4866522063
C -3.0897797239 -2.0191312063 1.8295432812
O -4.0827052321 -1.9796344556 2.5187030259
C -2.2525091671 -0.8946053616 1.2754324370
C -2.9120914501 0.4047453955 0.8057334180
C -4.1353512782 0.1783292190 -0.0763111666
C -5.3963300653 0.1088510399 0.5188198197
C -6.5183702612 -0.1362316721 -0.2695318199
O -7.8040771779 -0.2298432960 0.1882987143
C -8.0136338636 -0.1109790287 1.6021065831
C -6.3990500665 -0.3067917670 -1.6537918582
O -7.4920094484 -0.5428002433 -2.4398358144
C -5.1357147284 -0.2194007746 -2.2483833260
O -5.1156509647 -0.3810821422 -3.6036120204
C -3.8381384332 -0.3115854368 -4.2495751628
C -4.0105729832 0.0263837293 -1.4590855331
C -1.8596507454 1.2386183835 0.0812780009
C -2.1849803164 2.5896796654 -0.1556986402
C -1.3215245458 3.3362167099 -0.9180877042
C -0.1622773553 2.7902466868 -1.4608121478
O 0.5285285518 3.7552799279 -2.1493856081
C -0.3776966969 4.8752501206 -2.2373251059
O -1.4061155853 4.6641620509 -1.2444008743
C 0.1838213928 1.4810551666 -1.2435347897
C -0.6760653663 0.6942054611 -0.4434198848
C -0.2446863395 -0.7321232405 -0.1605050220
O 0.6179707174 -0.8284798685 1.0146133495
C 1.7547688034 -0.0375382776 1.0300452570
O 2.6422588730 -0.5100287825 0.0038477253
C 3.8293948591 0.2764986392 -0.0261909504
C 4.7136705146 -0.1780890505 -1.1729863850
O 5.9544116925 0.5536170417 -1.1011572862
C 6.6273044935 0.4324463851 0.1389368516
O 5.8088764704 0.8133288250 1.2436701174
C 4.5844724698 0.0616162909 1.2780866854
C 3.7542590177 0.5293696198 2.4578248158
O 4.3747602080 0.2162198012 3.7030190857
C 2.3930464096 -0.1724514309 2.4226596249
O 1.5178563617 0.3215404809 3.4298102901
C 7.2194667950 -0.9421330766 0.3260299562
C 7.5733719085 -1.8554976139 -0.6305494560
C 8.2083471552 -3.0092252908 -0.0939264428
C 8.3433042660 -2.9582840733 1.2660074462
S 7.6864449360 -1.4902113274 1.9128300445
H -2.0822291411 -1.6262731265 -0.7376173043
H -0.4401611790 -3.0548844165 1.4112624603
H -1.2299707332 -3.7583839820 -0.0391649041
H -1.5501373150 -0.6448289609 2.0869718174
H -3.2455270584 0.9625562777 1.6882730314
H -5.4906388308 0.2347352813 1.5896623781
H -7.4659534079 -0.8911355516 2.1430254364
H -9.0855218553 -0.2388194922 1.7535614227
H -7.7040456078 0.8773083886 1.9603475804
H -8.2691983405 -0.5667370964 -1.8614256535
H -4.0349610610 -0.4778609756 -5.3090682035
H -3.3785057049 0.6743094562 -4.1108929992
H -3.1634595778 -1.0896017890 -3.8728236814
H -3.0373843480 0.1288299333 -1.9220953818
H -3.1035959493 3.0139131371 0.2371189600
H -0.8388376616 4.8904358028 -3.2338270587
H 0.1611942731 5.7970657184 -2.0113149355
H 1.0901190512 1.0564838071 -1.6642360301
H 0.3035521647 -1.1314073852 -1.0216004772
H 1.5203222821 1.0249289426 0.8322031290
H 3.5850665846 1.3453868690 -0.1451492218
H 4.2770883056 0.0613154158 -2.1451503424
H 4.8860563349 -1.2607280632 -1.1047536832
H 7.4186105874 1.1890587225 0.1063744259
H 4.8007252772 -1.0129614708 1.3905766553
H 3.5962083184 1.6184817473 2.3687068743
H 5.2022367908 0.7132536322 3.7479757112
H 2.5334014159 -1.2393667484 2.6349463141
H 1.4120653224 1.2743304957 3.2973822873
H 7.3814688275 -1.7019310178 -1.6859773213
H 8.5488982317 -3.8454101819 -0.6934549746
H 8.7774842692 -3.6943970309 1.9297041821
