41
CONF5
C 2.9351260171 3.5477845651 0.8020171031
C 2.9065839621 2.0679010052 0.5752111876
C 2.8043279572 1.1578311288 1.6214040291
C 2.7468200075 -0.2121551019 1.4106066931
C 2.7869014932 -0.7546540853 0.1310102514
C 2.9007564943 0.1515515596 -0.9182958054
C 2.9500205827 1.5189770533 -0.7016921043
F 3.0298005645 2.3363309145 -1.7706656882
F 2.9467760783 -0.3039959390 -2.1843870095
C 2.6647957583 -2.2275882352 -0.1323324639
O 1.4878722054 -2.5100060264 -0.9394324610
C 0.2920309051 -2.3094063323 -0.3244531030
O 0.1955162415 -2.0216230597 0.8533400293
C -0.8030579078 -2.4407673804 -1.2979576677
C -1.9927987862 -1.4562859892 -1.1772150517
C -2.2089146065 -2.9148564407 -0.9343553909
C -2.9113926830 -3.6867923038 -2.0316455157
C -2.5132331277 -3.4229028173 0.4553672580
C -2.0162310976 -0.4609166672 -0.0941765746
C -1.4718085110 0.7512379488 -0.1905232126
C -1.5076151857 1.7800950054 0.8993803411
F -2.0362820799 2.9541477072 0.4755612141
F -0.2626098770 2.0642024894 1.3627982604
F -2.2399484099 1.3643633144 1.9509731476
Cl -0.5733327565 1.2696485180 -1.5962409725
F 2.6485950398 -1.0183541899 2.4822676662
F 2.7402118283 1.6120161814 2.8894431235
H 3.3355415304 3.7794170235 1.7898322757
H 3.5450516930 4.0414870425 0.0434916284
H 1.9212283847 3.9592614810 0.7404321497
H 2.6210556796 -2.7860836393 0.8034541723
H 3.4956937508 -2.5868581127 -0.7413733883
H -2.2915447308 -1.0660147591 -2.1482831959
H -2.6772173407 -3.2816633874 -3.0200724580
H -2.6116953310 -4.7395581041 -2.0068257612
H -3.9955674584 -3.6353158262 -1.8848889102
H -2.2330060989 -4.4786553636 0.5299070920
H -1.9828989907 -2.8759740684 1.2341956843
H -3.5904250045 -3.3451576088 0.6387374634
H -2.5170624303 -0.7048349833 0.8377641877
H -0.4784751086 -2.6434424081 -2.3125749188
