45
CONF215
C -2.0529947015 0.8160062561 -4.9672109724
O -2.9327205604 1.2929959874 -3.9385643018
N -2.3970837707 0.9778099469 -2.7066339021
C -3.1391828420 1.3545834691 -1.7117894331
C -4.4090144688 2.0266766960 -1.7803218785
C -5.1186158986 2.6500849900 -2.7822760618
C -6.3391893917 3.0843514852 -2.2073132148
C -6.3080337046 2.6906339494 -0.9021237411
O -5.1517197653 2.0510204720 -0.6222910587
C -2.5169536898 1.0782427404 -0.3608151333
O -2.6806766271 1.8092262334 0.5987526191
N -1.7451865205 -0.0553665127 -0.3202575682
C -0.9967628165 -0.3806921601 0.8466189983
C 0.5421680250 -0.1186299097 0.8864039008
N 0.7281750864 -1.5593153798 1.1077016787
C -0.6181981270 -1.8523106508 1.0427609337
O -1.2281987302 -2.9042225155 1.1003725939
C 1.9039803146 -2.1830378261 1.5724045046
C 2.9275910938 -1.4090574725 2.0214384252
C 2.8480297542 0.0888614884 2.1552343690
S 1.1761580223 0.8263294698 2.3002071749
C 4.2677367204 -2.0095485929 2.4066660704
O 5.2028279728 -1.0177075464 2.8895077204
C 5.8881675654 -0.3429512978 1.9188451805
O 5.6936958705 -0.4637838239 0.7277740560
N 6.7756854861 0.5197455414 2.4931713333
C 2.0216016265 -3.6802409456 1.4954224302
O 3.0840467583 -4.2249728317 1.7102962979
O 0.9491976406 -4.4041092259 1.1723485686
H -1.9510302398 -0.2727835303 -4.9121040910
H -2.5286128301 1.1002242936 -5.9074867174
H -1.0702103645 1.2904834205 -4.8819207471
H -4.7916513416 2.7827967221 -3.7986299651
H -7.1384481657 3.6180509321 -2.6978871357
H -7.0010607642 2.7860157912 -0.0810464596
H -1.5789161936 -0.5459139150 -1.1868697486
H -1.5005969316 0.0362018473 1.7262919086
H 0.9778902940 0.2230952760 -0.0590397737
H 3.3772404260 0.3894578659 3.0640924948
H 3.3825406056 0.5541921464 1.3167351330
H 4.1618433884 -2.7159785829 3.2317613253
H 4.7067926664 -2.5397066509 1.5604481066
H 7.4582265254 0.9250111398 1.8762394795
H 7.0312264649 0.3833787966 3.4568034171
H 0.0902354450 -3.9061791881 1.1462829820
