46
CONF57
C 2.6448688644 -1.6386653159 -6.0283618921
C 2.2087773188 -0.8846872913 -4.7941702324
O 2.5520543111 -1.7202188303 -3.6563423973
C 2.2529107821 -1.2709826369 -2.4382881437
N 2.6059393195 -2.0943925590 -1.4529723373
C 2.3031176788 -1.6339331458 -0.2296927056
N 1.6853974663 -0.4615580390 0.0336002315
C 1.3895676690 0.2587216186 -1.0490648037
N 1.6511655300 -0.0797668191 -2.3188697998
N 0.7605554238 1.4758909391 -0.8919460063
C 0.2324100881 2.1135336243 0.2484685870
O -0.3641756586 3.1661264644 0.1333984268
N 0.4535400628 1.4476655781 1.4290087536
S -0.3631083726 1.8303792568 2.8786602851
O -0.1879068579 0.6186288562 3.6870859630
O 0.1044380939 3.1304467040 3.3465798251
C -2.1054615017 2.0078696453 2.4415489492
C -2.5888008356 3.3095390178 2.3593732499
C -3.9472130246 3.5252164930 2.1640781906
C -4.8178421181 2.4438634994 2.0841681209
C -4.3299684376 1.1472232662 2.1808150652
C -2.9633986955 0.9069338125 2.3374510022
C -2.5596917213 -0.5321758473 2.3820507002
O -3.1263447840 -1.3620945554 3.0516225164
O -1.5703035545 -0.8072532810 1.5076030838
C -1.1628302081 -2.1939133806 1.4926145127
N 2.6290123312 -2.4082944325 0.8261001968
C 2.5619224463 -1.9473307908 2.2061426767
H 2.1267509115 -2.5983073016 -6.1014208998
H 2.4086687069 -1.0479126225 -6.9180669881
H 3.7218530642 -1.8244153884 -6.0111578287
H 2.7224393198 0.0771160044 -4.6955313333
H 1.1301622398 -0.6978138807 -4.7848566738
H 0.5701031080 1.9748787783 -1.7493197735
H 0.8450542984 0.4983459938 1.3588941365
H -1.8967494931 4.1367360945 2.4543095974
H -4.3226149704 4.5399887564 2.0896185065
H -5.8818962500 2.6083349794 1.9510133483
H -4.9999312324 0.2956643420 2.1333660318
H -0.8186104147 -2.4922760362 2.4863440329
H -0.3557694651 -2.2519762715 0.7627632537
H -2.0013503011 -2.8297518779 1.1974902228
H 3.1733035091 -3.2253925257 0.6021757915
H 2.8386129446 -2.7763541097 2.8598977895
H 3.2418417951 -1.1063344636 2.3892654881
H 1.5495003016 -1.6273026920 2.4674959864
