35
CONF712
C -0.9721203746 2.2313744784 2.1640691157
C -1.8202901754 3.1295316011 1.2962437976
C -1.6543950878 2.9412991960 -0.1931857886
Br 0.1829620799 3.4591232387 -0.7376296761
Br -3.7540752697 2.8076589996 1.6669166486
O -1.2158948816 0.8603621893 1.7855631629
P -0.1987165069 -0.2660327212 2.3025847791
O 0.0651439378 -0.3757805007 3.7451868935
O 1.0969870049 0.0939705108 1.4011725439
C 2.4052752937 -0.3205069838 1.8383737597
C 3.4318230978 0.5367439998 1.1355395381
C 3.2659650675 0.6540051054 -0.3613676041
Br 3.5688397481 -1.1225504316 -1.2045887897
Br 3.3326706911 2.4064807249 1.8324866416
O -0.8410489967 -1.5851564038 1.6700980328
C -1.2081968004 -1.6550772985 0.2779575249
C -0.0565844747 -2.1241448870 -0.5859989322
C -0.3247865709 -2.0135172873 -2.0669449997
Br -0.3567812542 -0.0924283445 -2.5864892809
Br 0.3243961507 -4.0442293416 -0.2201069002
H -1.2151118437 2.3666604812 3.2220026100
H 0.0838277355 2.4834183085 1.9930398675
H -1.6506193665 4.1678978949 1.5874761523
H -1.7782697921 1.9022532711 -0.4946842703
H -2.3198960351 3.5904391241 -0.7577201909
H 2.5689017333 -1.3687233045 1.5511975426
H 2.4893347639 -0.2275256024 2.9247627259
H 4.4331096400 0.1947726308 1.4041018469
H 2.2588644079 0.9605555047 -0.6432401346
H 4.0123097470 1.3114017918 -0.8016057403
H -2.0483889133 -2.3522257443 0.2209260810
H -1.5385484302 -0.6714730351 -0.0749038658
H -1.2880165780 -2.4323286906 -2.3602904017
H 0.4805382481 -2.4522288713 -2.6518203690
H 0.8690103581 -1.6108584696 -0.3298873752
