40
CONF3
C 3.8132714952 2.3607140367 0.7764011273
C 3.9118599159 1.0572537618 1.5496580497
C 5.1226302317 1.0042427520 2.4585474143
O 4.0849759564 -0.0620615238 0.6197260052
C 3.0376258904 -0.4974499540 -0.1024907100
C 1.7168774641 -0.0723154043 0.0544587245
C 0.6985810927 -0.5935708038 -0.7397535525
C 0.9821718522 -1.5570809157 -1.7069582873
C 2.2842418835 -2.0180592973 -1.8595927244
C 3.2913498404 -1.4889795150 -1.0698170549
Cl 4.9246772878 -2.0698649986 -1.2835511373
Cl -0.2682458267 -2.1682029220 -2.7605427747
N -0.6137700313 -0.1034434712 -0.5571672886
C -1.0181294552 1.1905117825 -0.7307483104
O -0.4183749314 2.1748701869 -1.0952572372
O -2.3671565765 1.1729771612 -0.3907518897
C -2.6620764584 -0.1220402180 -0.0338587833
N -1.6510755914 -0.9164736655 -0.1136992567
C -4.0580829298 -0.4399092599 0.3895413472
C -4.1577578244 -1.9298113536 0.7310831062
C -5.0132182230 -0.0961848763 -0.7701344768
C -4.4050803799 0.4138471331 1.6243671837
H 4.7386867330 2.5325593682 0.2179809507
H 3.6699971346 3.1873685306 1.4783623334
H 2.9744658128 2.3612510857 0.0750805575
H 3.0051764356 0.8750593711 2.1389715934
H 5.0564530329 1.8091245166 3.1956044120
H 5.1706642089 0.0489861854 2.9877592386
H 6.0403490456 1.1384878662 1.8777341338
H 1.4512664777 0.6675349372 0.7984178417
H 2.5155517446 -2.7707763283 -2.6035949372
H -3.4842253239 -2.1949063212 1.5508462383
H -3.9161538787 -2.5515477818 -0.1356542729
H -5.1836827564 -2.1487813413 1.0402795029
H -4.9647489389 0.9667322606 -1.0219615570
H -6.0370546068 -0.3328068199 -0.4654268009
H -4.7705527627 -0.6827210814 -1.6616119069
H -4.3492084284 1.4816832183 1.3958713217
H -3.7257334029 0.1932331222 2.4534760003
H -5.4265449075 0.1805506771 1.9394517776
