42
CONF56
C 2.2674090903 2.2953996476 1.5136339048
C 1.8386229027 1.9834513651 0.0803421522
C 2.5702484830 2.8694614753 -0.9300308426
C 2.0851412258 0.5271782972 -0.2730671311
O 1.2961190439 -0.2931855125 0.6242702631
C 1.2137151404 -1.5988408474 0.2972687081
O 1.8277250115 -2.1160251950 -0.6088522461
C 0.3370116161 -2.3435268147 1.2465844905
C 0.8025317632 -3.5817560894 1.6892927075
C 0.0966060813 -4.2999299852 2.6463159777
C -1.0834355676 -3.7823454843 3.1726942544
C -1.5643196758 -2.5588136538 2.7240493209
C -0.8712729023 -1.8383008799 1.7508911571
C -1.5187323699 -0.5888438373 1.2569513447
O -2.1346867386 0.1799185580 1.9608332478
O -1.3981129771 -0.4644391784 -0.0805887142
C -1.9657598076 0.7410354580 -0.6511758151
C -1.4834365082 0.8590727583 -2.0866945828
C -2.0077256888 2.1693956208 -2.6773997983
C -1.9087162871 -0.3447782904 -2.9261600794
H 2.0694108066 3.3437347641 1.7569597669
H 3.3423974377 2.1181605786 1.6380404245
H 1.7323037457 1.6709270079 2.2333507349
H 0.7585932544 2.1664977992 -0.0115124925
H 2.2399818430 2.6707822255 -1.9552107322
H 2.3895990275 3.9265751572 -0.7153346096
H 3.6523247156 2.7007139204 -0.8835089150
H 3.1434195173 0.2599642528 -0.1550101254
H 1.7921926501 0.3010156190 -1.3040334768
H 1.7333838668 -3.9614286110 1.2818401697
H 0.4725324464 -5.2589592717 2.9872367057
H -1.6347728339 -4.3358925554 3.9256130965
H -2.4920410551 -2.1489400921 3.1085617977
H -1.6553944374 1.5980175393 -0.0438143837
H -3.0602578068 0.6693967823 -0.6019903469
H -0.3852873451 0.9013934833 -2.0626236108
H -1.6505740459 2.2987613580 -3.7030874431
H -1.6805210986 3.0360434438 -2.0931917327
H -3.1035171501 2.1722863557 -2.7040319416
H -1.5145540624 -1.2764488433 -2.5128597466
H -1.5459641436 -0.2464822397 -3.9538816995
H -3.0021867546 -0.4202452815 -2.9606698487
