45
CONF7
C 4.2640822957 1.8234342769 -0.1526778424
C 3.6599230227 0.4501003951 -0.4034377262
C 2.5238987919 0.2014900856 0.5954918608
O 2.7663463970 -0.1159841226 1.7486710830
N 1.2666536805 0.4177707841 0.1069199897
C 0.0992332008 0.1563489327 0.8875526313
C -0.9822089704 1.2776551606 1.0469572026
N -1.9312207091 0.4099812128 0.3376924147
C -1.0404725205 -0.6670429172 0.2328621041
O -1.1795206343 -1.7824685704 -0.1900938014
C -3.2924856238 0.3674792024 0.8175394747
C -3.2136674182 0.4995717114 2.3846124849
S -1.7363054129 1.6109598703 2.6953797767
C -4.4496607331 1.1423636400 3.0074503364
C -2.9704043471 -0.8861548366 2.9866367079
C -4.1868639693 1.4203613029 0.1847078763
O -5.3734653824 1.2775298439 0.0209294916
O -3.5128209530 2.5456634700 -0.1448087729
O 3.2265554576 0.4275214543 -1.7679818607
C 2.9532574087 -0.7956471879 -2.3420663080
C 2.7079752253 -0.7639550315 -3.7161030234
C 2.4016148972 -1.9385771966 -4.3872279682
C 2.3361940908 -3.1494298377 -3.6998729709
C 2.5795144772 -3.1694085851 -2.3327755906
C 2.8889737372 -1.9993311921 -1.6408752979
H 4.5891319185 1.8923815796 0.8877560538
H 5.1220167829 1.9774084888 -0.8112293488
H 3.5240727357 2.6048937869 -0.3477728008
H 4.4122409474 -0.3300789394 -0.2306133604
H 1.1749354969 0.5874435514 -0.8847518634
H 0.4066490602 -0.2651460746 1.8497331301
H -0.7585826627 2.2233274031 0.5454613038
H -3.7306944866 -0.6030372939 0.5631672963
H -5.3369589560 0.5425409925 2.7805220397
H -4.6116726628 2.1575106494 2.6374164999
H -4.3372126874 1.1890865873 4.0942192271
H -3.8575873345 -1.5150158788 2.8452690516
H -2.1160899389 -1.3895528676 2.5262947914
H -2.7721490068 -0.7999867367 4.0578312561
H -4.1631423093 3.1626812534 -0.5175940945
H 2.7680297613 0.1862099297 -4.2360145365
H 2.2139492755 -1.9076278438 -5.4557667528
H 2.0927511086 -4.0658807401 -4.2257915196
H 2.5198279573 -4.1026988713 -1.7825811239
H 3.0553592042 -2.0448166355 -0.5710383043
