45
CONF113
C 6.4095418698 -2.8879227785 0.6075857885
C 5.1559008019 -2.8555642368 1.0866240445
C 4.2050291527 -1.7676694897 0.9228515582
C 2.9462012247 -1.8513448892 1.4425056783
N 1.9771613761 -0.9081619335 1.1428901625
C 2.0861270691 0.1943219106 0.1909364480
C 0.9152252440 0.8975327567 0.9478073333
C 0.8872275342 -0.3792378847 1.8266771012
O 0.2576427136 -0.7663925522 2.7810496415
N -0.2611250637 1.2969115747 0.2474991241
C -1.0627165004 0.3838200780 -0.3460766895
O -0.8005240598 -0.8193548416 -0.3349796764
C -2.3167680960 0.9232915029 -1.0284079035
N -3.1217192992 -0.0528416071 -1.3073487939
O -4.2758838337 0.3395079493 -1.9518667080
C -5.1558674234 -0.7748509997 -2.0526284260
C -5.8213286224 -1.0840882617 -0.7262655579
O -5.6837909985 -0.4483661107 0.2928923947
O -6.6054358162 -2.1680481017 -0.8511939982
C -2.5368792124 2.3472098952 -1.3171672093
C -3.3537197891 2.8555366388 -2.2958983680
S -3.2690317850 4.5887329845 -2.3191074611
C -2.1317810974 4.5177031699 -0.9647810822
N -1.8598789700 3.3022628838 -0.5704386367
N -1.5695179340 5.6397871195 -0.4531045828
S 3.7324406447 0.9721236423 0.3222071059
C 4.6323484857 -0.6100179258 0.0534201767
C 2.4230601099 -2.9935957125 2.2569645528
O 1.4018575777 -3.5856243551 1.9787179269
O 3.1903881461 -3.2687357512 3.3229000079
H 6.8592376869 -2.0718119533 0.0522972842
H 7.0246156500 -3.7667646098 0.7680204812
H 4.7991893237 -3.7297478272 1.6224398871
H 1.8675595310 -0.1068960076 -0.8376620024
H 1.2787616501 1.7414143721 1.5428919617
H -0.5515654359 2.2774981966 0.2239919821
H -5.9247943799 -0.4888769979 -2.7774314984
H -4.6307254516 -1.6617908058 -2.4240925880
H -7.0420074741 -2.3373704333 0.0018688538
H -3.9702004961 2.3375280352 -3.0115768873
H -2.0321520834 6.5221216131 -0.6094149333
H -1.1249758958 5.5404976295 0.4486311319
H 4.5648986592 -0.8874773019 -1.0055004406
H 5.6783147372 -0.3670167412 0.2586215129
H 2.8096620323 -4.0382312395 3.7835120180
