31
CONF3
C -1.5559547784 0.4202382451 0.2690328697
C -0.2127899158 -0.3911796351 0.2141762689
C 1.0189750349 0.4918589804 -0.1954433021
C 2.3974238198 -0.1634991194 0.1697875691
C 3.5987677587 0.4713557713 -0.5951757005
F 3.6394032677 0.0027181287 -1.8620495020
F 3.4815899307 1.8152760316 -0.6321403662
S 5.2898173080 0.0627651813 0.2176538581
O 5.4506717299 0.9756656031 1.3400245594
O 5.3432316948 -1.3900153894 0.3100961931
N 6.3826538474 0.5354075758 -0.9599541522
F 2.3505213322 -1.4781729252 -0.1332574490
F 2.6128459775 -0.0137182662 1.4940298052
F 0.9830560423 0.6896364500 -1.5342576718
F 0.9300379814 1.6855919600 0.4312079749
F 0.0202536132 -0.9222097209 1.4340837376
F -0.3470711131 -1.3878483574 -0.6892056635
C -2.8291986851 -0.4976134371 0.2386818204
C -4.1228805760 0.2311244630 0.7388289592
C -5.4531860109 -0.4820893264 0.3290654708
F -5.4023702857 -1.7828337254 0.6479672261
F -5.6798825887 -0.3592479699 -0.9826949614
F -6.4672226867 0.0886624105 0.9925006859
F -4.0932613158 0.2988941932 2.0860568642
F -4.1588863259 1.4847256843 0.2298913088
F -2.6151416919 -1.5729622654 1.0296902340
F -3.0305069743 -0.9170353266 -1.0307404622
F -1.5747226439 1.1496911945 1.4061631373
F -1.6028691675 1.2526210690 -0.7956498847
H 6.2950499920 0.0049941315 -1.8210463439
H 6.3915169540 1.5404565155 -1.1046456243
