21
CONF35
F 0.8165923522 -1.3422802058 0.6913139890
C 0.1559866173 -0.2429952731 0.2454871318
F -0.1165551763 0.5492013144 1.3147164619
C 1.0885897511 0.5488494651 -0.7193001614
F 0.4721562252 1.7514250009 -0.9596418011
F 1.1137334138 -0.1319055770 -1.9115933198
C 2.4899870117 0.8053996220 -0.2091591251
C 3.4582141325 -0.3839750964 -0.2486412957
O 4.7985233145 0.0737457717 -0.0476869882
C -1.1942826912 -0.7333547998 -0.3760991274
F -0.9493819028 -1.8247196499 -1.1372478907
F -1.7308961162 0.2318281323 -1.1578170308
C -2.2789191386 -1.1308548250 0.6778981117
F -2.7706624738 -0.0487010044 1.2920707945
F -1.7634733618 -1.9607151173 1.5963354984
F -3.2853837034 -1.7561352540 0.0494449565
H 2.8882712671 1.5923473227 -0.8595817458
H 2.4182512173 1.2158076494 0.8042237779
H 3.4413653803 -0.8486308507 -1.2378213041
H 3.1961843144 -1.1414605170 0.4967209906
H 4.8819202208 0.3519542550 0.8733568728
