45
CONF13
C 0.2486442436 -2.6670127359 1.4271722683
C -0.4571771639 -2.1226536489 0.2275692900
C -1.3940009921 -1.1706279483 0.2748095464
C -2.0866946983 -0.6472141667 -0.9110909746
C -2.2559798639 0.8905684606 -1.1326831610
C -3.4475709368 -0.0082057949 -0.8625854669
C -4.2146739175 0.0801519321 0.4375190893
C -4.3389390054 -0.2445243160 -2.0649994294
C -1.6292564517 1.7684017301 -0.1352576638
O -1.6939117044 1.6858232745 1.0715933642
O -0.8482522166 2.7038673647 -0.7666888907
C 0.1199734713 3.3526265659 0.0952351861
C 1.2580920515 2.3989954807 0.3337774209
C 2.0773028754 2.0249017409 -0.7283838571
C 3.0585819319 1.0572141725 -0.5839827437
C 3.2679149001 0.4077485323 0.6283882720
C 2.4532926552 0.7874411717 1.6901565566
C 1.4799586524 1.7703885353 1.5564247493
F 0.7628639457 2.1109435801 2.6321084877
F 2.6138399655 0.2004970427 2.8864737607
C 4.2991973648 -0.6846455983 0.7878675695
O 3.7359889571 -1.9869185780 0.6764135467
C 3.2922359032 -2.2915199611 -0.6414934565
F 3.8196051700 0.7452244718 -1.6501103822
F 1.9075594267 2.6052788249 -1.9271346395
H 0.1202376694 -3.7537109094 1.5028672300
H -0.1301741600 -2.2117504031 2.3464616093
H 1.3282324214 -2.4791542612 1.3772336010
H -0.1793762539 -2.5445966834 -0.7400141893
H -1.6592416678 -0.7473559413 1.2388564702
H -1.8448964292 -1.1671978433 -1.8359676730
H -2.1150141373 1.2178301666 -2.1572736243
H -3.5804963663 0.3157448860 1.2898135731
H -4.7241903779 -0.8716077917 0.6234703241
H -4.9773113599 0.8627366507 0.3627766620
H -4.9004683452 -1.1766407048 -1.9391371696
H -3.7599081755 -0.3190142029 -2.9903457000
H -5.0588363526 0.5736259781 -2.1772048718
H 0.4500640461 4.2275257240 -0.4664805818
H -0.3425913861 3.6508872523 1.0372326448
H 4.7318289765 -0.6340605184 1.7894004003
H 5.0981451230 -0.5443329623 0.0463408994
H 2.4617234893 -1.6411338667 -0.9536098698
H 4.1121717659 -2.1987929566 -1.3687981290
H 2.9415077500 -3.3257520363 -0.6200529535
