82
CONF482
C -5.1040640458 -1.0884390513 -2.3034694377
C -5.1292667926 0.2859305442 -1.6867740846
C -6.2880356687 0.9294382302 -1.5119532322
C -3.7524236719 0.8335616533 -1.3681248959
C -3.6412791554 2.3210732694 -0.9419998564
C -2.7468613428 2.3521961233 0.3105659004
C -2.9447881940 0.9743227875 0.9664289029
C -3.0095173111 0.0179215612 -0.2516516543
C -1.6419523594 -0.5379612441 -0.7341922904
C -0.7594753511 0.4322994298 -1.5226032600
C 0.3958748852 -0.3180418267 -2.1754969330
C 1.3517851775 -0.9944026254 -1.1743323068
C 2.6039226151 -0.0815878627 -0.8066980442
C 2.2523341409 1.3842120175 -0.4869494641
C 3.4641069503 2.2323004008 -0.0950463080
C 4.1951386671 1.6646241290 1.1118693454
C 4.6039268289 0.1840349222 0.9091961447
C 3.4097603309 -0.6968160015 0.3855730581
C 2.4526845591 -1.1160686808 1.5076242602
C 1.4804352507 -2.1958628867 1.0501084741
C 0.5315597349 -1.8173100881 -0.1021401884
C -0.8325192123 -1.1664500609 0.4336971996
C -0.5982137403 -0.0575070706 1.4797058284
C -1.8763818411 0.6039691766 2.0113577586
C -1.6966777359 -2.2613597620 1.0977322107
C 0.1671095155 -3.1526753834 -0.8060721430
C 5.8072253317 0.1533348510 -0.0593499878
C 5.1625855493 -0.3721743716 2.2335533274
O 3.3136945172 1.8686847639 2.2377709606
C 3.4533769903 -0.1112608598 -2.1058882695
C -4.3215977117 0.9291439891 1.6582882304
O -4.4128401640 1.7766678795 2.8154751588
H -4.5975369653 -1.8104025029 -1.6521522146
H -4.5377224309 -1.0698296471 -3.2434068019
H -6.1120176882 -1.4564628362 -2.5097158745
H -6.3511276690 1.9286645089 -1.0943719855
H -7.2263542930 0.4579332585 -1.7908412562
H -3.1971123081 0.6905630938 -2.3021260408
H -3.2345134718 2.9335022328 -1.7527750526
H -4.6221287625 2.7368659388 -0.7002406637
H -1.6950928175 2.4924692827 0.0448192809
H -3.0049789866 3.1759773194 0.9875118270
H -3.6149556465 -0.8535478879 0.0200144312
H -1.9050063049 -1.3437759707 -1.4372042139
H -1.3339451947 0.9305257663 -2.3103784283
H -0.3729679483 1.2260716855 -0.8810107185
H 0.9441317216 0.3634559083 -2.8329244575
H -0.0304973785 -1.0875378709 -2.8335185023
H 1.8548297408 -1.7932587183 -1.7342697750
H 1.5373715369 1.4281317614 0.3368188340
H 1.7642540586 1.8421574959 -1.3547569484
H 4.1666091424 2.3264682762 -0.9282025408
H 3.1382935798 3.2508673343 0.1464308072
H 5.1192225543 2.2425450570 1.2826541019
H 3.8683802139 -1.6263427931 0.0096421034
H 3.0228896591 -1.5378095373 2.3389172258
H 1.9365210051 -0.2400188050 1.9007428884
H 0.9019422931 -2.5631797851 1.9060246752
H 2.0879232360 -3.0499408069 0.7155214775
H -0.0657827877 -0.4742267301 2.3405023594
H 0.0513608533 0.7116062157 1.0601506530
H -2.3355058079 -0.0572149301 2.7555181046
H -1.5952707003 1.5075944377 2.5657013983
H -1.1164501454 -2.8672671284 1.8001184470
H -2.1416937184 -2.9301216319 0.3557463941
H -2.5190753160 -1.8209736770 1.6634772943
H -0.2015507833 -3.8903937072 -0.0890734409
H 1.0616057430 -3.5767519453 -1.2724181500
H -0.5918387885 -3.0326533221 -1.5850815894
H 6.6739169007 0.6248124153 0.4167513741
H 5.6301609226 0.6709261472 -0.9996347418
H 6.0743184186 -0.8830617979 -0.2914498896
H 6.0517581733 0.1994919037 2.5240210471
H 5.4641809083 -1.4186385610 2.1080237877
H 4.4542758641 -0.3351772710 3.0638756426
H 3.7846785879 1.6053260707 3.0368679155
H 4.0513309926 -1.0272974554 -2.1576936558
H 4.1292871629 0.7380143556 -2.1957975050
H 2.8121057084 -0.0868036736 -2.9906321031
H -5.1229237019 1.1719026542 0.9498708378
H -4.4957492928 -0.0897515803 2.0242609987
H -4.4491785992 2.6907697914 2.5094890542
