41
CONF3
C -1.2584336289 2.1277307332 0.2455095048
C -2.7680329112 2.0414648862 0.1611593761
O -3.2138887488 0.6746017129 0.4121824481
C -3.3063118847 0.3076880834 1.6963359240
O -3.1716693511 1.0364194762 2.6528590058
C -3.6671682803 -1.1741739609 1.8366874806
C -5.1784407008 -1.3412095506 1.8353037057
O -3.1617474540 -1.9734982818 0.7670782162
C -1.8159114561 -1.9419338938 0.5319496917
C -0.8742475566 -1.4054628265 1.4139835098
C 0.4705228806 -1.3891089311 1.0576020074
C 0.8515594484 -1.9077816238 -0.1644844046
C -0.0641015750 -2.4704850828 -1.0384157576
C -1.4047641580 -2.4874194080 -0.6861448141
O 2.2148665904 -1.9242317768 -0.5332190807
C 2.7529584153 -0.7488299157 -0.8232471151
N 2.2167578040 0.4263897483 -0.8687235548
C 3.2857911930 1.2466552204 -1.2374187110
C 3.3616714495 2.6161926834 -1.4540230782
C 4.5959345607 3.1492033654 -1.8214447860
C 5.7143573521 2.3244044961 -1.9647536653
C 5.6715675809 0.9453243763 -1.7544993938
C 4.4341934546 0.4622632891 -1.3928428557
O 4.0862773612 -0.8460785226 -1.1199649185
Cl 7.2435793235 3.0477747620 -2.4298845552
H -0.9367666865 3.1348988480 -0.0384482709
H -0.7813563621 1.4087337230 -0.4260251421
H -0.9148717918 1.9351014458 1.2647573733
H -3.1309311240 2.2537148021 -0.8468403033
H -3.2568219069 2.7071870939 0.8779471059
H -3.2533424803 -1.5073555715 2.7977794255
H -5.6153509198 -0.7512857187 2.6446477827
H -5.5915270548 -1.0071494987 0.8801955270
H -5.4319896517 -2.3935744857 1.9836339656
H -1.1653051151 -0.9847747733 2.3688275402
H 1.2110034262 -0.9572883451 1.7213114014
H 0.2717813847 -2.8743159652 -1.9868216304
H -2.1531023759 -2.9011256282 -1.3523382008
H 2.4899709143 3.2504336258 -1.3416600866
H 4.6991290396 4.2126909121 -2.0000795041
H 6.5441613180 0.3153696425 -1.8684709463
