70
CONF174
C -0.4876545718 -1.8317391534 1.8158530941
C -1.6137497078 -2.5274943073 2.6219773127
C -1.6773473262 -1.9628403348 4.0026359738
C -2.0987761584 -2.4385924968 5.2174477132
N -1.8896284990 -1.4591960708 6.1869782810
C -1.3161479833 -0.3492682725 5.6050325562
C -0.8828815126 0.8836710156 6.0936124728
C -0.3216659127 1.7570188697 5.1679980409
C -0.1883168892 1.4409410302 3.7989654488
C -0.6295747650 0.2181344490 3.3098447543
C -1.1849273250 -0.6561322687 4.2386073979
C -0.6113325982 -0.2770966261 1.8785561620
C 0.4770751679 0.4003084219 1.0490600824
C 0.4437164651 -0.1297508071 -0.3896778417
C 0.6053030732 -1.6438642962 -0.3424943387
N -0.5083057217 -2.2530343666 0.3997682895
C -0.4391445277 -3.7135427580 0.2287292172
C -0.7029020823 -4.1237754184 -1.1881417559
C 0.0873460520 -4.9119768331 -1.9103013022
C 1.5603286378 0.4977624938 -1.2054552475
O 2.6158455939 -0.1211500181 -1.3554716507
N 1.3633416532 1.7760589139 -1.7123274170
C 0.0752490867 2.4962823439 -1.6075790102
C -0.6892524316 2.5196200748 -2.9327177265
C -1.2223962095 1.1550491901 -3.3583978488
N -2.1795043740 0.5795028253 -2.4080198933
C -3.4492735647 1.2997903397 -2.3987935312
C -2.4070129102 -0.8330572575 -2.7017764595
C 2.3877520296 2.5583967662 -2.3793412419
O 2.1510590205 3.7247820129 -2.6688609937
N 3.5455919955 1.9293213797 -2.6635722991
C 4.6616136748 2.6773337509 -3.2292992782
C 5.4239297301 3.4868074498 -2.1825428758
H 0.4821731824 -2.1005927156 2.2878942991
H -2.5602047357 -2.3777511936 2.0817752781
H -1.4380125289 -3.6050071009 2.6761358284
H -2.5305570184 -3.3906850782 5.4920361743
H -2.1033053993 -1.5649228195 7.1624022826
H -0.9677938124 1.1585973328 7.1398895559
H 0.0323125767 2.7235212862 5.5123498462
H 0.2663913331 2.1754460287 3.1429983183
H -1.5839996068 -0.0329386246 1.4197278013
H 0.3393834100 1.4860863767 1.0709013434
H 1.4616144517 0.1916107481 1.4900455123
H -0.5359941651 0.0912212400 -0.8283358087
H 0.6100786337 -2.0517137778 -1.3578949282
H 1.5815751087 -1.9013219016 0.1082774494
H 0.5317332454 -4.1284343214 0.5675260225
H -1.2201364157 -4.1746142733 0.8404198601
H -1.6364120821 -3.7523771383 -1.6102517526
H 1.0287645719 -5.2835517007 -1.5133997147
H -0.1784193420 -5.2126644358 -2.9184651656
H 0.2986488702 3.5189502936 -1.2975420143
H -0.5349182805 2.0287867277 -0.8379600793
H -1.5074271951 3.2427350961 -2.8387620367
H -0.0324533962 2.9082938473 -3.7170307035
H -0.3760520589 0.4586566866 -3.4383261517
H -1.6607809521 1.2319526463 -4.3740277983
H -3.9448856612 1.2982882007 -3.3900239989
H -3.3061253061 2.3389399823 -2.0902635092
H -4.1272729119 0.8315767239 -1.6782246013
H -3.0596443705 -1.2689834974 -1.9382266312
H -2.8701297171 -0.9958218759 -3.6949551144
H -1.4558033721 -1.3746312597 -2.6749326686
H 3.6594847432 0.9908405720 -2.2891222958
H 5.3249088870 1.9515931454 -3.7119925881
H 4.2707080536 3.3430556658 -4.0049953151
H 5.8295580369 2.8343151049 -1.4032770116
H 4.7590618565 4.2183802164 -1.7160601541
H 6.2555727759 4.0248934438 -2.6486048901
