39
CONF7
C -3.4754361098 -0.5746429715 -0.2705800674
C -2.7794944297 -0.0967450608 1.0028434820
C -3.5384298397 -0.5754448450 2.2412924373
C -1.2690939134 -0.4982540673 1.0378800322
C -0.5619802667 0.0376303506 2.3005886683
C -1.1433168826 -1.9658644299 1.0708428390
N -1.0900169469 -3.1032751115 1.2687413685
N -0.5566099731 0.0646636159 -0.1141971835
C -0.2969264613 -0.5479019456 -1.2877086292
O -0.7040040843 -1.6607530607 -1.6096374596
C 0.5388972509 0.2792430606 -2.2747923858
C -0.3736662188 1.0556901885 -3.2082577123
O 1.3715750446 1.2509735099 -1.6122440251
C 2.4139066353 0.8027023000 -0.8588064492
C 3.1683899198 1.7756684573 -0.1850041048
C 4.2491070367 1.4338018388 0.6132775412
C 4.5772890635 0.0895323930 0.7455035646
C 3.8499729381 -0.8985012012 0.0999039218
C 2.7690438050 -0.5381731776 -0.6993949435
Cl 5.9429224558 -0.3551620525 1.7572175757
Cl 2.7343219410 3.4621189495 -0.3498877516
H -2.9829465185 -0.2053593544 -1.1733096269
H -4.5073160577 -0.2117206065 -0.2753272862
H -3.5017425071 -1.6689836169 -0.3151774884
H -2.7592426063 1.0016589964 1.0035919491
H -3.5086608789 -1.6679070749 2.3229812206
H -4.5872295805 -0.2777865644 2.1552978891
H -3.1457251220 -0.1460140042 3.1656048625
H -0.9610308948 -0.4310848861 3.1997670058
H -0.7206117169 1.1188551828 2.3619587581
H 0.5092276265 -0.1701451711 2.2395938867
H -0.1657647536 0.9864950038 0.0297303016
H 1.1586152057 -0.4232688198 -2.8438000156
H 0.2234826449 1.5930587441 -3.9487389762
H -1.0370214563 0.3588277740 -3.7262231946
H -0.9790112545 1.7704042455 -2.6432528284
H 4.8174153787 2.2034313700 1.1213730682
H 4.1120619442 -1.9436804812 0.2143091185
H 2.2090492706 -1.3240875782 -1.1916978782
