66
CONF14
C 4.6179760400 0.9333900014 -2.6785538228
C 3.1816591170 0.6538530000 -3.0711060545
O 2.2620914232 1.1278367442 -2.0483309759
C 2.0597064993 0.3062428783 -0.9864707038
O 2.5474621925 -0.8171649636 -0.9296595430
C 1.2372433919 0.8690102603 0.0795849214
C 0.8420877738 2.1732073940 0.1468341749
N 0.2467113672 2.6284203990 1.3024471914
C 0.1011041004 1.8979457007 2.4572457211
C 0.4297627703 0.5748574791 2.4521828859
C 0.8902485746 -0.1235141394 1.1826793754
C -0.1230448637 -1.1680820054 0.7044814199
C 0.2931131786 -2.4956081542 0.5648305433
C -0.5692389717 -3.4913911468 0.1246622770
C -1.8873101350 -3.1695061563 -0.1923142595
C -2.3176991994 -1.8559749340 -0.0711566337
C -1.4513027155 -0.8453215157 0.3714725099
C -2.0112239484 0.5119997045 0.5183905227
C -2.4153012342 1.3478216282 -0.4494464737
C -2.2936588364 1.1732505473 -1.9115595479
O -2.8832630103 1.9040651845 -2.6952439039
O -1.4689230055 0.1763844339 -2.2505841900
C -1.2560220519 -0.2317434627 -3.6624299866
C -0.5871031547 0.8996369018 -4.4330753746
C -0.3122831586 -1.4187730777 -3.5127135989
C -2.5780241013 -0.6707854030 -4.2807748134
C 0.2875285308 -0.2227290356 3.6685314812
O -0.2880169322 0.1096859400 4.6975228900
O 0.8858895207 -1.4353055927 3.5282140742
C 0.6739429516 -2.3975123937 4.5949206920
C -0.6609839431 -3.0953253813 4.4237350782
C -0.4213568211 2.6846905923 3.6203894884
C 0.9898438644 3.2338584670 -0.9036962842
H 5.2833546396 0.6248697828 -3.4911403156
H 4.8925256423 0.3780784161 -1.7779930918
H 4.7670204508 2.0018913531 -2.4975268238
H 3.0103283373 -0.4119550083 -3.2439614734
H 2.8969784883 1.2147753599 -3.9647017277
H -0.0246647307 3.5992285445 1.3325137184
H 1.8000771219 -0.6868023100 1.4099578777
H 1.3209505764 -2.7425089098 0.8114848112
H -0.2157689979 -4.5137500158 0.0313185094
H -2.5754551412 -3.9357118394 -0.5358537959
H -3.3412239200 -1.5923310856 -0.3207421695
H -2.1620060831 0.8477440738 1.5440614078
H -2.8950608950 2.2823607500 -0.1734549796
H -0.2811163806 0.5242721293 -5.4146305992
H -1.2629340596 1.7440199446 -4.5748386746
H 0.3062763535 1.2367364691 -3.8989663564
H 0.6095561935 -1.1143967190 -3.0090719462
H -0.0595190122 -1.8138280094 -4.5004933485
H -0.7841802269 -2.2111437088 -2.9237491583
H -3.0592615304 -1.4225498287 -3.6471143022
H -3.2570646767 0.1709265353 -4.4216803800
H -2.3740162246 -1.1240524736 -5.2557644322
H 0.7462880497 -1.8900437650 5.5605934613
H 1.5054714414 -3.0986913861 4.4923789076
H -1.4872946411 -2.3857371796 4.5185774625
H -0.7183143588 -3.5762777102 3.4425846876
H -0.7740780898 -3.8633417467 5.1954033647
H -0.4471096245 3.7512149929 3.3827257968
H 0.1980047314 2.5295608121 4.5049381569
H -1.4311524542 2.3565013483 3.8825412704
H 0.5171322719 4.1633330495 -0.5773824992
H 2.0430365801 3.4331923429 -1.1143480022
H 0.5288560210 2.9152213596 -1.8410111722
