82
CONF1
C -3.8982164312 3.5435339812 -0.4263682624
C -4.1227251682 2.4423988403 -1.4253218824
C -4.2394942130 2.7003223047 -2.7302857691
C -4.2706910252 1.0381232008 -0.8896686387
C -5.6466265741 0.8656516408 -0.1496586716
C -5.3368038354 0.2118873653 1.2161994524
C -3.9854897575 -0.4863263781 1.0025671525
C -3.2442107831 0.5894172482 0.1764406697
C -1.8469589087 0.1376777316 -0.2521997625
C -1.1151971947 1.1331011529 -1.1506579191
C 0.2215233981 0.5669461368 -1.6336929586
C 1.1199909887 0.1468106279 -0.4639593212
C 2.6035713296 -0.1817289918 -0.8781046427
C 3.2002785674 1.0895255539 -1.5291747970
C 4.7207442580 1.0416548539 -1.6746478837
C 5.4189910569 0.7922516982 -0.3471648032
C 4.9421672513 -0.5037563607 0.3552178941
C 3.3867147430 -0.4349965127 0.4457733569
C 2.7526840241 -1.5767530675 1.2417577993
C 1.3237871684 -1.2191044997 1.6509434908
C 0.3985242652 -0.8904699693 0.4617240657
C -0.9690173631 -0.2452400846 0.9893800190
C -1.7488293172 -1.2357122382 1.8950041830
C -3.1696353839 -0.7769437488 2.2604041732
C -0.6934220602 1.0062937934 1.8579998345
C 0.1196787134 -2.2132503995 -0.2808125403
C 5.4827258246 -1.7504942761 -0.3612863237
C 5.5372297201 -0.4933655893 1.7754496501
O 6.8433106214 0.8438672678 -0.4999607954
C 2.7065252181 -1.3287163597 -1.9075840965
C -4.2179799421 -1.7836553317 0.1970175526
O -4.8376432190 -2.8161340945 0.9696746940
H -2.8759368549 3.5097829511 -0.0313715568
H -4.0519960479 4.5252132993 -0.8800546217
H -4.5710112537 3.4494263204 0.4343397939
H -4.1864325616 3.7137605924 -3.1164484343
H -4.3864937720 1.9017752515 -3.4520363008
H -4.2300633185 0.3529485546 -1.7451259730
H -6.1536259689 1.8271262560 -0.0301609953
H -6.3135887630 0.2423408904 -0.7523348273
H -5.2255657781 0.9778815426 1.9935920643
H -6.1394530060 -0.4556824255 1.5537934301
H -3.1352328920 1.4416310186 0.8595873173
H -1.9812507976 -0.7720848530 -0.8501661101
H -1.7404673056 1.3847630072 -2.0130109358
H -0.9444096914 2.0740234960 -0.6102812595
H 0.7247541255 1.3233518763 -2.2427642341
H 0.0236017575 -0.2812946988 -2.3003483624
H 1.2447572845 1.0465345702 0.1514902490
H 2.9343842636 1.9624725004 -0.9152447409
H 2.7579369014 1.2532755991 -2.5175223561
H 5.0171288748 0.2655947545 -2.3940495107
H 5.0840675639 1.9908584816 -2.0848568593
H 5.1872509788 1.6282933837 0.3290644627
H 3.2014442975 0.4776012186 1.0406365213
H 3.3287449471 -1.7696882800 2.1517042470
H 2.7712257657 -2.5117366273 0.6701104541
H 1.3852154495 -0.3523604428 2.3184689023
H 0.8908999773 -2.0402830719 2.2343599483
H -1.8315084061 -2.2131737660 1.4153232155
H -1.1823850209 -1.3991872189 2.8183915185
H -3.6530253938 -1.5558481957 2.8599079797
H -3.1358080396 0.1301487877 2.8773168331
H -1.6035133643 1.5871844955 2.0187674351
H 0.0395508868 1.6904828537 1.4292416565
H -0.3346437425 0.7179318054 2.8496116805
H -0.3968010819 -2.9258787875 0.3658074769
H 1.0488614304 -2.6921459425 -0.5819101906
H -0.4778210953 -2.0893632968 -1.1855636810
H 5.2919458055 -1.7520879229 -1.4365029708
H 6.5641316385 -1.8284826796 -0.2050320574
H 5.0350835192 -2.6581282216 0.0546408185
H 6.6042119333 -0.2605801859 1.7193542993
H 5.4329827557 -1.4629502442 2.2703971132
H 5.0529881853 0.2648805928 2.4016684636
H 7.0825170286 0.2270897576 -1.2016389660
H 3.5442368813 -1.1718834625 -2.5908729578
H 2.8532600755 -2.3095834817 -1.4525336502
H 1.8072002501 -1.3817762536 -2.5259994587
H -4.8125163859 -1.5727533277 -0.7034556680
H -3.2738546296 -2.2183290816 -0.1375217093
H -5.7064857644 -2.5039068111 1.2442277882
