53
CONF13
C 1.5426544213 -1.6137945053 0.8625660080
C 0.0663090755 -1.2525036114 0.8815293557
N -0.2644041544 -0.3926168761 -0.2629307239
C 0.5521230489 0.8265601416 -0.1742523792
C 2.0290108407 0.4690723131 -0.1974464586
N 2.3703536678 -0.4042697923 0.9313879825
C 3.8028220993 -0.7216630677 0.9595911169
C 4.6271527481 0.3807902245 1.6075913061
O 4.3183543912 0.4167571689 2.9966996304
C 4.0359852037 1.7037357571 3.5415000162
C 2.7183227684 2.2839920198 3.0340722319
O 1.6431977425 1.3792281718 3.1927483463
C -1.6964626895 -0.0626701009 -0.2825960683
C -2.5606047051 -1.3140149154 -0.3180344913
C -3.6692967600 -1.4188622012 0.5193214456
C -4.5000853041 -2.5349935959 0.4615510703
C -4.2236382127 -3.5632368973 -0.4325583289
C -3.1115335531 -3.4689324474 -1.2669388963
C -2.2882849841 -2.3510270068 -1.2130386202
C -2.0514455938 0.8077093189 -1.4779845240
C -1.4938592332 0.5762603990 -2.7367935374
C -1.8675579839 1.3391781895 -3.8357213088
C -2.8165298582 2.3420838030 -3.6706298712
C -3.3868640326 2.5954518966 -2.4305452667
C -2.9942260374 1.8243098615 -1.3412482925
Cl -3.2939434844 3.3108942956 -5.0541144450
H 1.7604209798 -2.1991635985 -0.0521843031
H 1.7699270245 -2.2420211236 1.7314049632
H -0.5246713508 -2.1714220159 0.8265724288
H -0.1762337908 -0.7520438115 1.8404573074
H 0.3282109139 1.3928547497 0.7507473889
H 0.3297819908 1.4730244874 -1.0283042615
H 2.6177499412 1.3913292314 -0.1360714014
H 2.2710121883 -0.0219727354 -1.1608797498
H 3.9433158160 -1.6287477380 1.5587034890
H 4.1930013014 -0.9333683009 -0.0548087899
H 4.4369979173 1.3495121646 1.1260771524
H 5.6972423648 0.1559732251 1.4768633593
H 4.8618866403 2.4096520508 3.3449632234
H 3.9675873339 1.5396741738 4.6214613004
H 2.8164251815 2.6041365599 1.9814900344
H 2.4892500448 3.1852453278 3.6165952189
H 1.8462104063 0.6317181066 2.5913997528
H -1.9741963828 0.5025974571 0.6303033632
H -3.8835958836 -0.6213378464 1.2257360890
H -5.3600642769 -2.6023334116 1.1203523301
H -4.8674353061 -4.4356136636 -0.4780393031
H -2.8863394834 -4.2705413186 -1.9634913486
H -1.4168923861 -2.2821367621 -1.8559272334
H -0.7438347126 -0.1994176854 -2.8507908064
H -1.4285888735 1.1615144356 -4.8107448855
H -4.1202583160 3.3853494126 -2.3179101286
H -3.4344581101 2.0200999532 -0.3674278913
