54
CONF532
C -4.7326728494 -3.2056372595 0.9538237821
C -3.7018850329 -2.7957299744 -0.1019912638
C -3.3502045305 -3.9876324059 -0.9925312041
C -2.4419214650 -2.2143838182 0.5723685450
C -1.2924978728 -2.0115525652 -0.4310802780
O -0.3774465114 -2.8263826458 -0.5286855108
N -1.4020667817 -0.9074581309 -1.2138463870
C -0.2679532134 -0.3939889701 -1.9838532265
C -0.7986092903 0.3437042175 -3.2219475708
C 0.3003114997 1.0057177093 -4.0158149591
O 0.2767453110 2.1523421990 -4.4133188180
O 1.3176521541 0.1570869493 -4.2423589618
C 2.4390846873 0.7021465443 -4.9828914603
C 0.6024910230 0.4839945997 -1.1020183704
C 0.1296206051 1.7061347628 -0.6161084548
C 0.9019541058 2.4806156237 0.2415546666
C 2.1562462880 2.0135359930 0.6170559199
C 2.6567189355 0.8069486741 0.1477742943
C 1.8693403338 0.0490750676 -0.7152322318
Cl 3.1310922311 2.9800710537 1.7201533939
N -2.7779013363 -0.9736591837 1.2574991959
C -1.8215020608 -0.2835744165 1.9359147412
O -0.6934008817 -0.7087782221 2.1460961222
O -2.2866845388 0.9244010243 2.3325031216
C -1.3675731217 1.7492604829 3.1270971982
C -1.8044558318 3.1813984995 2.9004620212
C -1.4416244366 1.3231282507 4.5814654932
H -5.0212486511 -2.3743742468 1.6032782531
H -5.6374487759 -3.5821773022 0.4670198212
H -4.3277190740 -4.0057958734 1.5839217616
H -4.1312873211 -2.0043347888 -0.7343196023
H -2.8549624845 -4.7719364808 -0.4091393981
H -4.2639469565 -4.4087467191 -1.4217747397
H -2.0593436855 -2.9431481177 1.2978043424
H -2.1147665436 -0.2350383529 -0.9616870557
H 0.3185853868 -1.2583152264 -2.3019992701
H -1.3123682170 -0.3750265995 -3.8714090211
H -1.5153498756 1.1198566596 -2.9428610843
H 2.8663735165 1.5499477465 -4.4423563173
H 2.1144423681 1.0199052060 -5.9763346238
H 3.1592314318 -0.1116330097 -5.0546786276
H -0.8562063231 2.0676088377 -0.8960545692
H 0.5333791486 3.4289261818 0.6157774824
H 3.6383856235 0.4605087987 0.4502756619
H 2.2479027138 -0.8994894771 -1.0844746924
H -0.3595383598 1.5876337399 2.7323831892
H -1.1329389025 3.8546936701 3.4411041057
H -2.8231026139 3.3374732089 3.2697296826
H -1.7693474009 3.4362146991 1.8376118553
H -0.7562974034 1.9342256581 5.1768650877
H -1.1564458361 0.2742707649 4.6971621006
H -2.4565343029 1.4637276311 4.9672859194
H -2.6875450356 -3.7049155917 -1.8153188222
H -3.6523957715 -0.5114200412 1.0547831742
