45
CONF285
C 7.3588227500 1.1723673246 2.3505985777
C 6.1967401517 0.7023253995 1.4781880949
C 5.7002552397 -0.6896476371 1.8726004225
C 4.6192569476 -1.2602740022 0.9508615869
C 3.3173554272 -0.4580772142 0.9393020061
C 2.2203895984 -1.1237349972 0.1098461882
C 0.9202588172 -0.3235293588 0.0834093629
C -0.1732018757 -1.0059465513 -0.7588571864
C -1.4723771322 -0.2442574444 -0.8088440395
C -2.2943917241 -0.2674768096 0.3179225185
N -3.4337393844 0.4672318784 0.2567411354
C -3.7918260360 1.2094536847 -0.8687772498
N -4.9497045026 1.8291008313 -0.6045366533
C -5.2286163567 1.4334520903 0.6532647204
N -4.3570759119 0.6052053023 1.2428318815
N -3.0418748097 1.2151048834 -1.9686255597
C -1.9151565816 0.4995636130 -1.9351063279
C -1.1160700920 0.5390023536 -3.2149145350
C 0.0463843191 1.5384659425 -3.1606518969
N -2.1025299093 -0.9956345292 1.4480591383
H 8.2120939754 0.4905775358 2.2681481359
H 7.0657338567 1.2092945432 3.4054294784
H 7.6991545886 2.1716425034 2.0631292569
H 6.5060948517 0.6887478312 0.4242418252
H 5.3761044942 1.4261753471 1.5493373114
H 5.3206245722 -0.6591043064 2.9037559500
H 6.5560717456 -1.3776770049 1.8830841134
H 4.3957246835 -2.2902965937 1.2593282390
H 5.0123431616 -1.3253613972 -0.0733568868
H 3.4998127427 0.5491134816 0.5440392544
H 2.9644885072 -0.3243961592 1.9721726315
H 2.0231132572 -2.1306881600 0.5048068866
H 2.5780661386 -1.2659469249 -0.9197063980
H 0.5707899736 -0.1604661478 1.1123829284
H 1.1072624945 0.6790317399 -0.3191781382
H 0.2117227945 -1.1488150919 -1.7715619358
H -0.3508192524 -2.0195858809 -0.3692330487
H -6.1143616436 1.7573979798 1.1859196256
H -1.8097761519 0.8348441042 -4.0053761747
H -0.3218532765 2.5332246138 -2.8936257167
H -1.1795377811 -1.3362101936 1.6477482352
H -2.7018340808 -0.7777069084 2.2303248298
H 0.7992467767 1.2458538740 -2.4233512997
H -0.7402021038 -0.4586198931 -3.4663849956
H 0.5388612678 1.6050899026 -4.1351807474
