51
CONF55
C 3.2481545637 -1.5326110485 0.9972595139
C 2.5042962802 -0.2258076041 1.0900298675
C 1.0983564656 -0.2389524078 1.1646204259
C 0.3842675572 0.9463280587 1.3227471675
C 1.0539050359 2.1631074670 1.4054448032
C 2.4375853929 2.1934458936 1.3152501075
C 3.1735669470 1.0127372579 1.1449766199
C 4.6474547004 1.1254359650 1.0133452670
C 5.3927813054 1.8094055675 1.9817648656
C 6.7708970778 1.9546390090 1.8473349299
C 7.4261642339 1.4247206761 0.7379152801
C 6.6932572194 0.7496409021 -0.2367425812
C 5.3167486590 0.6001827958 -0.0995688076
C 0.3874423968 -1.5693370113 1.0983132211
O -1.0458566175 -1.4296119550 0.9655692791
C -1.5013337726 -1.1435725854 -0.2788545953
O -0.7779385896 -1.0275094314 -1.2484997391
C -2.9710720817 -1.0017319458 -0.2596378471
C -3.6204915291 -0.2086405643 -1.4038513510
C -3.8635120949 -1.6989981773 -1.2741841949
C -3.2602982796 -2.5849073822 -2.3396118968
C -5.1886909125 -2.2040623991 -0.7471878030
C -4.6386404533 0.7774886742 -1.0727227193
C -4.7914550195 1.9714740295 -1.6506531835
C -5.8652904887 2.9461323975 -1.2722282064
F -6.6720174373 2.4519456750 -0.3115734140
F -5.3517633812 4.1129241730 -0.8048697628
F -6.6515584569 3.2720469305 -2.3294297284
Cl -3.7531927850 2.5741744789 -2.9241711543
H 2.8406428210 -2.2647838860 1.7015897974
H 3.1683303583 -1.9713100103 -0.0051936094
H 4.3079627865 -1.4056871675 1.2194856068
H -0.6985274972 0.9224806480 1.3862489356
H 0.4942914178 3.0848778946 1.5298065986
H 2.9656523650 3.1415654524 1.3540509248
H 4.8865466320 2.2187064257 2.8513391099
H 7.3337346070 2.4806706356 2.6125379676
H 8.5004446403 1.5388967021 0.6317845294
H 7.1942337355 0.3419452990 -1.1095513775
H 4.7496334313 0.0843263311 -0.8687794748
H 0.5189956750 -2.1304647518 2.0289741858
H 0.7651799528 -2.1762247909 0.2702344358
H -3.4047600748 -0.8764823831 0.7267795605
H -2.9196944248 0.0618541356 -2.1871376031
H -3.0488982379 -3.5769804867 -1.9253844210
H -3.9804009563 -2.7056866480 -3.1556668229
H -2.3366937729 -2.1731928786 -2.7481485158
H -5.0706985395 -3.2350508888 -0.3983218241
H -5.9366516402 -2.1994679371 -1.5474144827
H -5.5659257258 -1.6098176655 0.0873004776
H -5.3451632877 0.5332445419 -0.2853189648
