41
CONF4
C 2.8981945822 3.5790883329 0.7452080187
C 2.8849499405 2.0953243037 0.5436424974
C 2.7465707983 1.2115416228 1.6084244932
C 2.7007872067 -0.1631879659 1.4326403799
C 2.7894380335 -0.7377474231 0.1691884530
C 2.9407646241 0.1414536337 -0.8978991008
C 2.9786886283 1.5148140204 -0.7162619180
F 3.0955483988 2.3020583654 -1.8042760962
F 3.0343746826 -0.3475576338 -2.1488783601
C 2.6718688964 -2.2159863492 -0.0638448724
O 1.5100671341 -2.5122330704 -0.8884663797
C 0.3031892431 -2.3063063892 -0.2966781744
O 0.1861114908 -2.0079786216 0.8766517232
C -0.7752516799 -2.4466629067 -1.2870138909
C -1.9762761420 -1.4750535837 -1.1846873471
C -2.1821709501 -2.9347551293 -0.9423693861
C -2.8607277650 -3.7160949415 -2.0479327551
C -2.5003237532 -3.4430049750 0.4441027144
C -2.0260220927 -0.4774183415 -0.1040270869
C -1.4802141955 0.7347575082 -0.1896426150
C -1.5413633252 1.7652891353 0.8975720421
F -0.3070132565 2.0539694647 1.3856972247
F -2.2936014681 1.3487841016 1.9347631495
F -2.0650102132 2.9370709707 0.4613721754
Cl -0.5502730468 1.2511294285 -1.5754402925
F 2.5657151409 -0.9417626974 2.5203313285
F 2.6328412259 1.7023785331 2.8591798465
H 3.3891908545 3.8347226520 1.6859732626
H 3.4162641632 4.0764236493 -0.0755147142
H 1.8727957599 3.9638044879 0.7853713159
H 2.6078728087 -2.7543242031 0.8824690460
H 3.5140472283 -2.5891261595 -0.6483616223
H -2.2659960675 -1.0893327255 -2.1604214690
H -2.5495273210 -4.7653773420 -2.0175910391
H -3.9473575784 -3.6767307509 -1.9161296851
H -2.6177847632 -3.3095390039 -3.0336511071
H -1.9867253529 -2.8884966968 1.2288085115
H -3.5807236715 -3.3761863428 0.6124025394
H -2.2104964945 -4.4957154597 0.5250471502
H -2.5486812818 -0.7202721817 0.8161921627
H -0.4341518076 -2.6493691757 -2.2961468182
