26
CONF3
C -3.8303773799 0.1804178754 0.1285558511
C -2.5139732217 -0.5097301040 -0.2009536036
C -1.2929150982 0.3005712405 0.2670752260
C 0.0218069917 -0.2643525563 -0.2963922154
C 1.2427095385 0.5477069305 0.1689428429
C 2.5591648901 -0.1439100430 -0.1573323684
O 2.6950788544 -0.3298324912 -1.5719034359
O 1.2175791491 1.8561139180 -0.4323691945
O 0.2439055474 -1.6085978031 0.1165554613
O -1.5137867505 1.6457815945 -0.1433981036
O -2.4886192359 -1.8205063657 0.3951227804
O -3.9662226983 0.3590169147 1.5441466365
H -3.9069197235 1.1310307898 -0.4089846001
H -4.6526037576 -0.4738402363 -0.1787390432
H -2.4539961068 -0.6635995093 -1.2865510084
H -1.2377964785 0.2300849986 1.3704891791
H -0.0342925974 -0.1959298463 -1.3999088298
H 1.1823911394 0.7057905547 1.2538998593
H 2.6358192181 -1.0917520316 0.3851173986
H 3.3812973353 0.5119223023 0.1468386453
H 1.5271843204 1.7341207191 -1.3425470908
H -0.6416195495 2.0629060112 -0.2604680717
H 2.1845495967 -1.1143681017 -1.8051383199
H -3.4564382027 1.1428147073 1.7814217254
H -0.6278904478 -2.0259069011 0.2357466774
H -2.7981967334 -1.7021020522 1.3057871550
