56
CONF174
C -1.3359737841 -4.4850806098 -1.0922288871
C -0.5351171836 -3.7371822001 -0.0258707995
C -0.1617398703 -4.6106749079 1.1710657599
N -1.2167579537 -2.5010583935 0.3981070217
C -2.4816323383 -2.4036626505 0.9427906021
C -3.3754517016 -3.3905445790 1.3718835564
C -4.5860601022 -2.9792820171 1.9140037125
C -4.9095136354 -1.6164617982 2.0415608012
C -4.0279355925 -0.6353492565 1.6167027725
C -2.8059533271 -1.0203006586 1.0453790620
C -1.6900977601 -0.2829562619 0.5377097962
C -0.7410524505 -1.2188110778 0.1420624490
C 0.5696907557 -0.9819632321 -0.4398392656
C 0.8080099511 -0.0358659683 -1.3570921449
C 2.1767430710 0.3279546624 -1.8299460513
C 2.5077515668 1.7746118707 -1.4723255705
C 3.9369424043 2.1852165850 -1.8272853227
C 4.2761933359 3.5660770442 -1.2815106243
C 4.4018072722 3.6155893019 0.2148906728
O 4.4898134982 2.6575182166 0.9555777582
O 4.4325822741 4.8898054295 0.6634808537
O 4.1350106402 2.2684346322 -3.2463351582
O 2.2627232522 0.2167697158 -3.2752444354
C -1.5529356646 1.1783152545 0.5394088222
C -2.5607477658 1.9908492352 0.0021070045
C -2.4478097262 3.3787530174 0.0034165573
C -1.3072428532 3.9429013841 0.5465112909
C -0.2876763955 3.1826783577 1.0959004861
C -0.4239605371 1.7995482131 1.0946557571
F -1.1835793456 5.2977820208 0.5467325844
H -0.7331495716 -5.3134756055 -1.4755765554
H -2.2644930135 -4.9008771069 -0.6937652930
H -1.5804000774 -3.8194488832 -1.9251791895
H 0.3932134004 -3.4035515860 -0.4971825085
H 0.4395026981 -5.4564265321 0.8248437623
H -1.0437229267 -5.0100134254 1.6778832532
H 0.4264381599 -4.0393610121 1.8949363228
H -3.1469374198 -4.4463211710 1.3016566520
H -5.2930985805 -3.7296571791 2.2535672511
H -5.8608828674 -1.3334824177 2.4810336438
H -4.2766359588 0.4162984268 1.7222960442
H 1.4067222575 -1.5730769732 -0.0672515688
H -0.0118518576 0.5530701076 -1.7664840430
H 2.9199435187 -0.3383805447 -1.3657986161
H 1.7970867378 2.4472687935 -1.9714243851
H 2.3662058173 1.8842817542 -0.3918395566
H 4.6341278665 1.4498752497 -1.3950640334
H 5.2403763321 3.8912356589 -1.6947007182
H 3.5362834831 4.3053198328 -1.6086222189
H 4.5489805929 4.8661470083 1.6286950578
H 3.6819557232 1.4974563753 -3.6250007990
H 2.1713097747 -0.7166627860 -3.5065683035
H -3.4383095679 1.5312836113 -0.4415843672
H -3.2226084227 4.0110304885 -0.4166105909
H 0.5845261759 3.6661790687 1.5233141268
H 0.3593880934 1.1876772102 1.5298162785
