47
CONF35
C -6.9728081106 1.4208968276 3.3126335596
O -5.7626060988 1.4859689995 2.5233191665
P -5.7616347225 0.8597565285 1.0444371876
S -6.4874751604 -0.9126767385 0.8142579633
O -6.4417104437 2.0555117470 0.2167272338
C -6.7686657608 1.8599234161 -1.1774597426
O -4.2054525788 1.0813828942 0.6381923387
C -3.2090868394 0.1410204184 0.8811844198
C -2.3462507207 -0.1461053716 -0.1699565768
C -1.3044643335 -1.0404645744 0.0256337153
C -1.1158871201 -1.6316555775 1.2776215959
C -1.9851647526 -1.3261798130 2.3254504591
C -3.0417942645 -0.4434603288 2.1288895955
S 0.1658164626 -2.8435406043 1.5642869127
C 1.5738327565 -2.1142527663 0.7421640260
C 2.4186013701 -2.9488211124 0.0083794904
C 3.5584127789 -2.4327270576 -0.5969191424
C 3.8405865168 -1.0794459301 -0.4790295267
C 3.0069892506 -0.2332798082 0.2470103113
C 1.8800756218 -0.7567712234 0.8649331219
O 5.0112983356 -0.6242814093 -1.0739782853
P 5.0837441146 0.7589888209 -1.9558988268
S 3.6063545746 1.1004567685 -3.1315306111
O 6.5534074595 0.5626584982 -2.5752865937
C 6.7413234136 -0.3788631217 -3.6550368405
O 5.3517967902 1.9191961695 -0.8849838071
C 6.4034023829 1.7717828084 0.1027655247
H -6.7087965744 1.8169261691 4.2936750845
H -7.3147921865 0.3851332268 3.3983230681
H -7.7536104730 2.0387877697 2.8586280067
H -7.4096917850 0.9817222807 -1.2978930769
H -7.2956526986 2.7624234314 -1.4885499056
H -5.8540238813 1.7407570811 -1.7669230344
H -2.5065940196 0.3231078824 -1.1341544294
H -0.6357566589 -1.2786363512 -0.7944571877
H -1.8309810496 -1.7723165791 3.3022297404
H -3.7149883952 -0.1971036574 2.9419066632
H 2.1760882775 -4.0004544196 -0.1025142857
H 4.2193956414 -3.0663858863 -1.1775622321
H 3.2379568323 0.8231325879 0.3318509143
H 1.2307662059 -0.1050957089 1.4394952282
H 7.7831669903 -0.2793332551 -3.9609423736
H 6.5493710701 -1.3983638010 -3.3057721895
H 6.0762091222 -0.1343863073 -4.4886057164
H 7.3816028697 1.7674872886 -0.3846275153
H 6.3137846796 2.6376151339 0.7593600597
H 6.2639040210 0.8499648448 0.6757725140
