35
CONF99
C -4.7663303295 -2.1411211297 2.2018576099
C -3.4067636237 -2.2981427002 1.5697027268
O -3.0764900023 -1.0145862095 0.9280165108
P -1.7264284839 -0.8499597899 0.1063608814
S -1.3003830275 -2.1522991085 -1.2664267512
O -1.8471756465 0.6802177219 -0.2989739281
C -1.4076694734 1.2002463400 -1.6056293108
C -1.2455712845 2.6910500792 -1.4523222333
O -0.6671900295 -0.8477269801 1.3837413022
C 0.6627075682 -0.6862568882 1.1945582355
N 1.5474151975 -1.2633629890 2.0377447902
C 2.6975025454 -0.8383302533 1.5263677537
N 2.5113975635 -0.0592534899 0.4459321974
N 1.1718026132 0.0511173102 0.2210511172
C 3.4773030877 0.5901751013 -0.4595075852
C 3.2341854255 2.0948322091 -0.4828366568
C 3.3873867161 -0.0455376248 -1.8431852620
Cl 4.2401285990 -1.2331360241 2.1593208771
H -5.5217783495 -1.9082762330 1.4466684249
H -4.7569873952 -1.3505933236 2.9568633461
H -5.0398850998 -3.0822353736 2.6880517054
H -3.4011799785 -3.0747315805 0.7986325386
H -2.6340497676 -2.5168950069 2.3134145679
H -0.4657842719 0.7171457369 -1.8752411296
H -2.1771171541 0.9400969985 -2.3376864272
H -2.1868654075 3.1608722149 -1.1544333590
H -0.9366210598 3.1121219697 -2.4138794574
H -0.4778233646 2.9226337608 -0.7086150063
H 4.4584111604 0.3835555030 -0.0223383265
H 4.0060549806 2.5679137713 -1.0953761088
H 2.2575410161 2.3201876043 -0.9209980712
H 3.2789930338 2.5161722654 0.5251193152
H 4.1503209419 0.3973856840 -2.4887513884
H 2.4051378588 0.1413569714 -2.2872282735
H 3.5558046318 -1.1246368279 -1.7899746249
