33
CONF11
C -2.6784959464 0.3545067189 -3.7021361328
C -2.6329530361 0.7641496809 -2.2306639809
C -3.9679134551 0.5255065818 -1.5473549985
O -4.0221087481 1.1413832470 -0.3480371865
O -4.8792985964 -0.1403266737 -1.9911762944
C -1.5457957319 0.0302546021 -1.4629763353
C -1.6123117697 -1.3583185446 -1.2948438639
C -0.6124766749 -2.0366182072 -0.6065195706
C 0.4605633526 -1.3383735030 -0.0615277544
C 0.5416509295 0.0482901778 -0.2265591580
C -0.4610468573 0.7209692660 -0.9356831814
C 1.7121210789 0.8303431667 0.2619431717
O 2.0930722513 1.8234317551 -0.3551787295
C 2.4149930013 0.3999683552 1.5016693841
C 3.7824537109 0.6768208447 1.6291884032
C 4.4599345107 0.3322202241 2.7907947479
C 3.7727034154 -0.2657974422 3.8479465200
C 2.4082020351 -0.5237931064 3.7371484848
C 1.7316606800 -0.2043879024 2.5643833725
H -3.4587936253 0.9086938677 -4.2306511747
H -2.8851897148 -0.7137060780 -3.8053259259
H -1.7145402338 0.5701554434 -4.1699752625
H -2.4280326091 1.8375351093 -2.1505676801
H -4.8814540715 0.9407079650 0.0610672925
H -2.4520341349 -1.9131750949 -1.7045986387
H -0.6702895265 -3.1142614515 -0.4925710130
H 1.2445669734 -1.8723229813 0.4645494104
H -0.3860874863 1.7968602775 -1.0610828348
H 4.3042939407 1.1500945890 0.8039689676
H 5.5236268618 0.5301782121 2.8769620873
H 4.3016371972 -0.5275218246 4.7590723395
H 1.8703109059 -0.9755944481 4.5643922111
H 0.6670315851 -0.3978727258 2.4850648108
