45
CONF6
C -4.9841132895 1.5222650857 -2.9220001935
C -5.1841507542 0.2269686498 -2.1905763760
C -4.3355458035 -0.2791469013 -1.2837131414
C -3.0619038169 0.3114934181 -0.8408444693
C -1.9402333990 -0.6098353962 -0.3613627805
C -2.6306245963 0.3588108691 0.6031493085
C -1.8926475163 1.5873568112 1.0834445519
C -3.4965840875 -0.2784402603 1.6667967048
C -0.5707571000 -0.3501339042 -0.8315087656
O -0.1449053463 0.6806745450 -1.3029096621
O 0.2088347028 -1.4616750620 -0.6448455706
C 1.5907389808 -1.3267315677 -1.0117232967
N 2.3016813099 -0.4499825189 -0.1181083902
C 2.8690960243 0.7669509928 -0.4794223382
O 2.9605993192 1.2259687698 -1.5900318777
C 3.3908011007 1.3742849162 0.8169723964
N 2.9795011761 0.4154530915 1.8287093333
C 2.4532806284 -0.7249794710 1.2592260258
O 2.1580249496 -1.7632752940 1.8087415604
C 3.5985047563 0.3556592022 3.1454657126
C 5.0458623862 0.1765316050 3.0792422047
C 6.2391303142 0.0509703832 2.9844594874
C -6.4485631455 -0.5013281159 -2.5501979556
H -4.9542614961 1.3482947666 -4.0048821578
H -4.0716297452 2.0465676397 -2.6370378565
H -5.8317400375 2.1942013636 -2.7380813110
H -4.6036381262 -1.2296251702 -0.8260794277
H -2.6777716323 1.1406191597 -1.4276447049
H -2.1817102193 -1.6572829257 -0.2146346663
H -2.6156591740 2.3257653793 1.4471881173
H -1.2244917360 1.3329424477 1.9151165137
H -1.2986198365 2.0439465248 0.2903907454
H -2.8945523443 -0.5106487936 2.5517006462
H -3.9670933388 -1.2031809624 1.3278424425
H -4.2912167687 0.4135876543 1.9676231108
H 1.9855175404 -2.3417178087 -0.9404738084
H 1.6946910765 -0.9111552159 -2.0185986826
H 4.4837876828 1.4747480651 0.7613761045
H 2.9511447755 2.3677771585 0.9672019312
H 3.3635643357 1.2723413185 3.7014450355
H 3.1376402853 -0.4848661126 3.6763343225
H 7.2926498738 -0.0774562153 2.9155316233
H -6.4719619620 -0.7329848893 -3.6226946384
H -7.3288325709 0.1213452162 -2.3459685894
H -6.5521320861 -1.4364581300 -1.9944865261
