44
CONF3
C 0.5762660555 1.3831928029 2.3792125739
C 1.1710657027 2.0969212916 1.1681816213
C 0.3684121969 1.8419078878 -0.1257432303
C 0.3819005963 0.3752876291 -0.4905661731
C -0.6632024845 -0.5277313503 -0.2082841431
C -0.4212182984 -1.9268637314 -0.1901199321
C 0.7974752711 -2.4263813539 -0.6262873112
C 1.8002894407 -1.5703505040 -1.0604213228
C 1.5735163829 -0.1871492082 -0.9547633201
O 2.5569088245 0.7151838842 -1.2688518499
C 3.7510635353 0.2665798572 -1.7152698153
C 4.0587145595 -1.0363289515 -1.8771389983
C 3.0926176075 -2.0824052956 -1.5544479831
O 3.3419226329 -3.2757241333 -1.6772920184
C 4.6612902488 1.4149826624 -1.9935831874
O 4.3656442215 2.5713306907 -1.8210483222
O 5.8580663043 0.9945372964 -2.4613648502
C -1.4313180972 -2.8585253132 0.3587266452
O -1.2934694387 -4.0791731048 0.3403901995
C -2.5768112544 -2.2057377257 0.9662065918
C -2.8079693351 -0.8803721863 0.7822772207
N -1.9400994733 -0.0454573765 0.1027473369
C -2.5465251015 0.9674410378 -0.8199402028
C -3.6107338058 0.3442466396 -1.7160476796
C -3.9871996534 -0.2182139860 1.4194791999
O -4.0561115854 0.9600202261 1.6858177164
O -4.9710012848 -1.1013888730 1.7066953265
H -0.4705561824 1.6697119940 2.5303475489
H 0.6093499075 0.2953091780 2.2576838556
H 1.1297240123 1.6307266177 3.2895252264
H 1.1799714913 3.1793992746 1.3411986224
H 2.2139524551 1.7971376379 1.0227484519
H -0.6470316303 2.1945023000 0.0516247820
H 0.7914314657 2.4386706395 -0.9401274593
H 0.9650271570 -3.4983669718 -0.6242372937
H 5.0369954709 -1.3217431281 -2.2401859259
H 6.3909621521 1.7902461482 -2.6138671435
H -3.2627401695 -2.8067993889 1.5477199860
H -2.9515591895 1.7973840554 -0.2374448212
H -1.7372859988 1.3391420996 -1.4466906928
H -3.9511266783 1.0920826261 -2.4383323948
H -3.2053769822 -0.5096448080 -2.2675086101
H -4.4850412345 0.0063931693 -1.1527829742
H -5.6561901158 -0.6039813353 2.1802428454
