35
CONF72
C 0.6826640740 0.5068462096 3.1699779131
C 0.0757142782 -0.6220265164 2.3967709868
C -0.2266530403 -1.8465765700 2.9165949194
S -1.0017362025 -2.8755192319 1.7473064166
C -0.9284749027 -1.6516899139 0.5138551229
C -0.3185715715 -0.5275364896 1.0164200996
N -0.0998307826 0.6555968943 0.2508994556
C 1.1979037779 0.8973105825 -0.4544346450
C 2.2552294987 -0.1299522384 -0.0728973650
C 1.0060047005 0.9564144459 -1.9680412179
O 0.8289043029 -0.3575681097 -2.4838606639
C 0.5328271674 -0.3380116886 -3.8762664220
C -0.9996824529 1.6789224157 0.2911934123
O -0.7952344609 2.7735797880 -0.2246877019
C -2.3079026982 1.3244140301 1.0070222235
Cl -3.4203028997 2.7465404668 1.0927184216
C -1.5190710926 -1.8729000813 -0.8349419170
H -0.0159125000 1.3483670776 3.2508797139
H 1.5879684527 0.8909630374 2.6898569635
H 0.9397364101 0.1843059803 4.1811236569
H -0.0508045719 -2.2057093083 3.9221442861
H 1.5335304674 1.8950738483 -0.1469299205
H 1.9405664207 -1.1445188870 -0.3251639310
H 3.1654608350 0.0951728739 -0.6362092421
H 2.4962283729 -0.0907106093 0.9907166844
H 0.1404114041 1.5848795363 -2.2191497031
H 1.9042407631 1.4196458686 -2.4106903966
H 1.3482285478 0.1280225799 -4.4493707485
H -0.3986817418 0.2121622225 -4.0766188390
H 0.4151158517 -1.3757574597 -4.1971926013
H -2.1303560510 0.9899516071 2.0307651913
H -2.8321484851 0.5320860113 0.4669566521
H -1.0563124704 -2.7260000147 -1.3419550917
H -2.5946580820 -2.0682755739 -0.7651764288
H -1.3544013085 -0.9875024921 -1.4516147712
