51
CONF17
C 0.4349099225 -0.2941066012 2.1719131748
C -0.3103692531 0.8618811916 1.5693717073
C -1.5560990433 0.7049809463 1.0909206335
C -2.3872540721 1.7690335970 0.4980750870
C -2.7164242962 1.7850437434 -1.0345068094
C -3.7890115604 1.5443786229 0.0155452715
C -4.4542763984 0.1937939110 0.1555960068
C -4.7545935525 2.6996635924 0.1928808981
C -2.1007183076 0.7388465636 -1.8571701751
O -2.0670817629 -0.4574331368 -1.6367048001
O -1.4764110303 1.3030410024 -2.9344990232
C -0.5886063802 0.4172603744 -3.6627492802
C 0.6529187324 0.1637218688 -2.8716317593
C 1.4941977056 -0.9957049658 -2.9285582771
C 2.4897028005 -0.8067766868 -2.0183775967
O 2.3166545113 0.4010907169 -1.3924137804
C 1.1953252014 0.9800994035 -1.9291324860
C 3.6377518021 -1.6341461183 -1.5625612176
C 3.4879124998 -2.0759129062 -0.1193297682
C 4.2183058107 -1.4586958453 0.8972830498
C 4.0599649573 -1.8539781355 2.2249449203
C 3.1677788289 -2.8725319159 2.5492263957
C 2.4326894773 -3.4923397529 1.5392964298
C 2.5903760373 -3.0940239444 0.2152117289
C 0.4561413454 2.1522047380 1.5423051119
H -0.1729985468 -1.2023623025 2.1998436721
H 0.7617260561 -0.0593937770 3.1933651849
H 1.3467896200 -0.5062119690 1.5974228794
H -1.9930030548 -0.2882324429 1.1459452507
H -2.1845859315 2.7742110691 0.8573869772
H -2.6993489710 2.7712590359 -1.4862512313
H -3.7728781387 -0.6368933494 -0.0185182819
H -4.8782880853 0.1028053058 1.1619925173
H -5.2767539615 0.1133072159 -0.5635929562
H -4.2480991361 3.6645277082 0.0974070485
H -5.5511885112 2.6506312808 -0.5576697693
H -5.2168676191 2.6505436569 1.1850992269
H -0.3793648731 0.9495287458 -4.5945951997
H -1.0976133624 -0.5219279116 -3.8976040947
H 1.3669013998 -1.8629098430 -3.5607815317
H 0.9124193461 1.9382787961 -1.5223389572
H 4.5715285118 -1.0711638621 -1.6775336153
H 3.6940155001 -2.5069594258 -2.2201576145
H 4.9180664677 -0.6656911540 0.6470827908
H 4.6357324935 -1.3653030789 3.0052810418
H 3.0444388864 -3.1822325083 3.5824264245
H 1.7355254794 -4.2881295668 1.7841870880
H 2.0144893376 -3.5777419148 -0.5699787089
H -0.0483086419 2.9443362294 0.9861147594
H 1.4415641551 1.9886708731 1.0881463394
H 0.6423175934 2.5076626035 2.5640905282
