53
CONF11
C -0.0384907120 4.4529952091 -1.6607819773
C -0.0551573570 4.4250095453 -0.1455653946
O -0.2434106672 3.0691764523 0.3382869652
C 0.8567286690 2.2789749499 0.4117326680
O 1.9889215952 2.7013809616 0.1946460426
C 0.4984310961 0.9113023197 0.7606783833
C 1.4750727452 -0.0135521764 0.9951542967
N 1.1400719029 -1.2928383868 1.3366811885
C -0.1400065266 -1.6983778083 1.6221359595
C -1.1822120321 -0.8352289984 1.4290989721
C -0.9736341339 0.5115180862 0.7430182480
C -1.4791913485 0.4706290794 -0.7003024254
C -0.8760299164 -0.4345518825 -1.5833302618
C -1.2529121286 -0.5353284538 -2.9155666783
C -2.2642933033 0.2864249957 -3.4080739083
C -2.8860384779 1.1959377445 -2.5614953929
C -2.4907974791 1.2774499950 -1.2274406073
Cl -3.3419942857 2.4656780823 -0.2348382098
C -2.5312792467 -1.2167780862 1.8278644828
O -2.8795342136 -2.2607485153 2.3683295184
O -3.4243806103 -0.2365052932 1.5278047640
C -4.7952998687 -0.5068142750 1.8810803422
C -0.2284133653 -3.0923096597 2.1662361409
C 2.9681902726 0.2682232692 0.9587624121
O 3.7389969550 -0.8122800871 1.4731127956
C 4.5245762345 -1.5173766977 0.4987399003
C 3.7100405732 -2.4745980595 -0.3547947732
N 3.0126125917 -3.4453402205 0.5038380409
H 0.0457607747 5.4884126917 -2.0055571972
H -0.9634699288 4.0284476569 -2.0626670355
H 0.8111631568 3.8877640005 -2.0532940600
H -0.9128637603 4.9725775820 0.2519960060
H 0.8647039653 4.8362527828 0.2785725583
H 1.8908540247 -1.9938002242 1.3832638237
H -1.5490528107 1.2693109791 1.2754503826
H -0.0849149823 -1.0740633367 -1.2010235627
H -0.7599232461 -1.2498676795 -3.5667399684
H -2.5729690336 0.2243454236 -4.4465737602
H -3.6746876444 1.8425700319 -2.9300455680
H -4.8917084595 -0.6623160870 2.9590060658
H -5.3522660581 0.3780618934 1.5729075721
H -5.1606406401 -1.3905482576 1.3509497476
H 0.7469694022 -3.5802257228 2.1114881306
H -0.5582649442 -3.0747204240 3.2084324915
H -0.9623206922 -3.6817173125 1.6140556123
H 3.2693266493 0.5216212308 -0.0652769545
H 3.1685467540 1.1499400725 1.5751541742
H 5.0604443332 -0.8048047959 -0.1437249063
H 5.2639345867 -2.0779838491 1.0820312826
H 2.9598633831 -1.9175554895 -0.9328650422
H 4.3965183862 -2.9351934619 -1.0838974838
H 2.4418811306 -4.0623425784 -0.0647624778
H 3.6925485960 -4.0362356495 0.9732967767
