24
CONF2
O -1.6079908337 2.3113128934 -0.9773660461
C -1.9814369070 1.0848104222 -0.5395815934
C -1.1606561418 -0.0374826724 -0.6917827828
O 0.0367403206 0.1438531909 -1.3769404569
C 1.2112671529 0.0493642270 -0.6691421130
C 1.2769689218 0.0608799397 0.7210439043
C 2.5044033606 -0.0145282239 1.3694411847
C 3.6652236981 -0.0980338187 0.6128620440
Cl 5.2209823581 -0.1986903868 1.4213641186
C 3.6300660555 -0.1040294129 -0.7763113864
C 2.3962925471 -0.0310074506 -1.4081965201
Cl 2.3260296544 -0.0331488423 -3.1534791595
C -1.5608462178 -1.2863081787 -0.2452999633
C -2.7941660810 -1.4395469166 0.3800262923
C -3.5996403915 -0.3154294506 0.5302506536
Cl -5.1637597053 -0.4895249298 1.3157514905
C -3.2219965005 0.9418981518 0.0809037900
H -0.7448082435 2.2381993250 -1.4134781084
H 0.3638443771 0.1302074301 1.3016753932
H 2.5485475093 -0.0042498593 2.4520140198
H 4.5396524149 -0.1675035676 -1.3610824228
H -0.9024352555 -2.1379367703 -0.3841509698
H -3.1187608472 -2.4099238935 0.7346527239
H -3.8635206580 1.8068186986 0.2025193156
