41
CONF87
O 8.5314571065 0.8747522824 -1.5197461381
N 8.1077612593 -0.0191829198 -0.7810723606
O 8.8425360232 -0.8376766875 -0.2204739534
C 6.6767121717 -0.1129825208 -0.5614380218
C 5.8284962188 0.8072539421 -1.1866972057
C 4.4673967026 0.7208132281 -0.9805926998
C 3.9386174194 -0.2878390256 -0.1465692067
C 4.8159816847 -1.1970490503 0.4742697387
C 6.1797165351 -1.1176657738 0.2706931876
N 2.5837455071 -0.4691049892 0.1401752712
N 1.8022338305 0.3253544314 -0.4904418573
C 0.4603093193 0.1962953165 -0.2244367272
C -0.4017799274 1.0549425871 -0.9384074509
C -1.7638821182 1.0161826198 -0.7663620695
C -2.3559677787 0.1009814110 0.1504461245
C -1.4752352127 -0.7556440304 0.8817196385
C -0.1188615820 -0.7103386432 0.6967038924
N -3.7011034048 0.0549847090 0.3274140384
C -4.3714031193 -0.9729441537 1.1273532746
C -4.7307971779 -0.4871030595 2.5308066367
O -3.5814548046 -0.1746001384 3.3208708893
C -4.6042313811 0.9718519201 -0.3816627956
C -4.9632772307 0.4732717205 -1.7799273597
H 6.2443199578 1.5784951798 -1.8231264381
H 3.8002873646 1.4292466803 -1.4555138331
H 4.3999064501 -1.9662011517 1.1165085491
H 6.8559713231 -1.8175401225 0.7447943028
H 0.0354433177 1.7524308248 -1.6466340910
H -2.3799059718 1.6837638788 -1.3534275731
H -1.8741342901 -1.4352081053 1.6221043986
H 0.5216265446 -1.3677929558 1.2729069652
H -5.2982477095 -1.2486962590 0.6094017495
H -3.7576712002 -1.8738727201 1.1832251595
H -5.2566436399 -1.2962600682 3.0477115846
H -5.4081140423 0.3762924657 2.4715885241
H -3.2035854052 0.6479470863 2.9837974740
H -5.5104120634 1.0603523860 0.2250063379
H -4.1562201531 1.9684673716 -0.4179371952
H -5.4499718675 -0.5052630481 -1.7278357623
H -4.0744265775 0.3836549341 -2.4106435486
H -5.6551917820 1.1756296485 -2.2539114655
