41
CONF139
C -2.2011468335 -2.5261624655 -2.1785588760
C -2.2179332775 -1.1724597905 -2.8968516866
C -1.6140939537 -1.2868708928 -4.2930873433
N -1.5118842475 -0.1058120954 -2.1669589180
C -2.0400337348 0.1905315947 -0.8306012949
C -1.6320601090 1.6091040099 -0.4315969433
O -2.0755007627 2.5473942275 -1.4048966031
C -0.1216723350 1.7743139920 -0.2696593769
O 0.3299202862 0.7920733066 0.6633324824
C 1.6401979287 0.8076151467 1.0457724319
C 2.5898481884 1.6922381679 0.5341796079
C 3.9046946848 1.6312544632 0.9925813481
C 4.2745366844 0.6975784057 1.9505123867
C 3.3164032520 -0.1835550112 2.4484032372
C 1.9966842923 -0.1503814843 2.0119072122
C 0.9604972533 -1.0858127008 2.5685144050
C 0.0693369464 -0.4903705078 3.6286204869
C 0.1686622240 0.7340987076 4.1349032499
H -2.6584286745 -2.4640919098 -1.1867084440
H -2.7504127025 -3.2790681943 -2.7533159011
H -1.1700709075 -2.8807417156 -2.0579489284
H -3.2616346861 -0.8397776045 -2.9937396830
H -2.1527770133 -2.0283511113 -4.8901864040
H -0.5665261403 -1.6066606949 -4.2339149921
H -1.6493901421 -0.3247061281 -4.8109624823
H -0.5321399252 -0.3673053375 -2.0897494885
H -3.1355573181 0.1659388642 -0.8850640328
H -1.7257322650 -0.5184191688 -0.0497074165
H -2.1188724662 1.8638912150 0.5175756296
H -1.9268493144 2.0997523291 -2.2546559576
H 0.0921600415 2.7870917469 0.0962661730
H 0.3779983068 1.6461039020 -1.2424161914
H 2.3185465765 2.4261807761 -0.2145534936
H 4.6377205977 2.3237675612 0.5912867996
H 5.2974069509 0.6507412372 2.3077939935
H 3.5950005557 -0.9170229088 3.2004610411
H 0.3240840789 -1.4633203368 1.7571236442
H 1.4616027997 -1.9670809534 2.9911373965
H -0.7108853146 -1.1571589014 3.9955638471
H 0.9330091718 1.4276634205 3.7954309055
H -0.5147081781 1.0784372313 4.9037681419
