43
CONF3
C -1.3537892697 2.1297871190 -0.1633858102
C -1.5686408372 0.9944726017 0.8381151287
C -1.5604495251 -0.3789324997 0.2206294415
C -2.8238630056 -0.9355934007 0.3192588088
C -3.1064061962 -2.1835557097 -0.2199507711
C -2.0734429404 -2.8684922750 -0.8539611226
C -0.7883805151 -2.3388539036 -0.9423659059
C -0.5148969304 -1.0781966569 -0.3942109244
N 0.7558008730 -0.4812338015 -0.3934411192
C 1.8910571920 -0.8741990559 -1.0683875966
O 1.9300710609 -1.8394910831 -1.8217731441
C 3.0900747752 -0.0419263860 -0.8485061147
C 3.3922893743 0.9737947326 0.0574838225
N 4.6541919054 1.3869698142 -0.1719710508
N 5.2173929971 0.6982898518 -1.1933208819
C 4.2912179675 -0.1647492318 -1.6066022589
C 4.5900794578 -1.0854132542 -2.7361610828
C 5.4099642008 2.4026586311 0.5385724270
Cl 2.4709084665 1.6953046730 1.3324320850
C -3.7374628743 0.0013360230 1.0667368976
O -2.8737149713 1.1138727809 1.4270872937
C -4.8776274867 0.5205936235 0.1905167253
C -4.2673202121 -0.6157771543 2.3587152223
H -1.5050607098 3.0912043984 0.3348176494
H -0.3436908185 2.1160877906 -0.5869214264
H -2.0702335834 2.0395356052 -0.9842153136
H -0.8285511077 1.0801165331 1.6532941410
H -4.0987779926 -2.6173973887 -0.1470547913
H -2.2612625631 -3.8464531922 -1.2856851925
H 0.0014178781 -2.8908059533 -1.4294568032
H 0.8332735572 0.3530114408 0.1662722289
H 4.5504280399 -2.1272693107 -2.4086274821
H 3.8468568229 -0.9830268182 -3.5308172241
H 5.5842977522 -0.8581705913 -3.1268692652
H 6.3741625040 2.4876837452 0.0383670254
H 4.8892160719 3.3640744644 0.5036468551
H 5.5612235539 2.1124857371 1.5830605673
H -5.5511105996 -0.2972130185 -0.0857087452
H -5.4507140413 1.2772869707 0.7344671522
H -4.4813378097 0.9677327905 -0.7246793823
H -4.9303010994 -1.4586287561 2.1390329967
H -4.8299313218 0.1326585757 2.9245791664
H -3.4369580344 -0.9735783819 2.9727150824
