55
CONF194
C -7.3241520331 -3.4004529914 0.5739275301
C -6.6588182296 -2.5077840172 -0.4456931447
O -5.4276447199 -2.0146048281 0.1591210908
C -4.6919532667 -1.1860950918 -0.6188787982
O -4.9951564466 -0.8492774911 -1.7501625750
N -3.5733303412 -0.8025432175 0.0741515161
C -2.5459668118 0.0498020751 -0.3469411362
C -1.5197435629 0.3009095199 0.5723905604
C -0.4453871600 1.1057348187 0.2193969381
C -0.4234918023 1.7484465720 -1.0217629348
C -1.4565256711 1.5161766910 -1.9256094246
C -2.5013658284 0.6564228595 -1.6100875199
S 0.9094861483 2.8642530249 -1.4000453221
C 1.1444541318 3.5349058760 0.2349871596
C 1.5045972864 4.8715628986 0.4063134596
C 1.6864128727 5.3735367466 1.6904027337
C 1.4736704018 4.5577917970 2.8008047150
C 1.0989890139 3.2289907059 2.6322260309
C 0.9611602819 2.7088798915 1.3482662842
N 0.6291998379 1.3353971670 1.1270614677
C 1.4846461797 0.3416606648 1.5958814289
O 2.4057060523 0.6163261657 2.3553584597
C 1.2342761859 -1.0819668085 1.1357364677
C 2.5247654543 -1.8667599445 0.8829709661
N 3.0451029999 -1.6657039880 -0.4741531764
C 4.1653227630 -2.5825590800 -0.7230200040
C 4.6897758909 -2.3951824115 -2.1362672764
O 5.1280035676 -1.0489656666 -2.3515431368
C 4.0453253089 -0.1444348164 -2.1092236947
C 3.5052775301 -0.2894183247 -0.6966596289
H -6.6808063771 -4.2458132731 0.8333562176
H -8.2548542596 -3.7915276021 0.1529928479
H -7.5641989923 -2.8441686122 1.4842969956
H -7.2852979301 -1.6500396827 -0.7093160507
H -6.4042596066 -3.0511855793 -1.3609207002
H -3.4906648259 -1.1814171208 1.0070266306
H -1.5430852633 -0.1511870029 1.5594391837
H -1.4495437295 2.0122560245 -2.8908754694
H -3.2885815742 0.4791896131 -2.3278104628
H 1.6361919111 5.5107235018 -0.4608568530
H 1.9737656964 6.4114982735 1.8225851355
H 1.5954231212 4.9571987860 3.8021181602
H 0.9306368685 2.5849283705 3.4871363419
H 0.6813878292 -1.5712802139 1.9475719623
H 0.6019011184 -1.1267824359 0.2468238408
H 3.2723666401 -1.6067614665 1.6539001388
H 2.3004452309 -2.9340762264 0.9870902944
H 4.9919572853 -2.4153713526 -0.0039858225
H 3.8174555239 -3.6159853222 -0.6022038838
H 5.5568912552 -3.0389773316 -2.3096654870
H 3.9024403801 -2.6484752047 -2.8650176984
H 4.4381442558 0.8647379828 -2.2630651263
H 3.2373973890 -0.3297987612 -2.8362531013
H 2.6658653408 0.4074940196 -0.5869517468
H 4.2863872930 -0.0002290799 0.0336371145
