43
CONF5
C 1.9621175025 2.1221706545 3.9962599393
C 2.1653646143 0.6639946082 3.6440666150
O 1.8365683388 0.3902050856 2.2582041283
N 0.4555840134 0.3754665627 2.1097397485
C 0.0871649017 0.2151651294 0.8953946123
C -1.3439169577 0.1550914133 0.5507210926
C -1.8405898311 -0.9644740522 -0.1514853636
C -3.1824699172 -1.0228521576 -0.5244144667
C -4.0274773397 0.0377051468 -0.2191791800
C -3.5442566136 1.1461999227 0.4580826222
C -2.2040866956 1.2195774251 0.8586239624
O -1.7056821433 2.3458561875 1.4421016584
C -1.9844478149 2.4636233711 2.8594529135
Cl -4.6150799501 2.5061887342 0.7501146801
O -0.9367766890 -1.9406517641 -0.4080686173
C -1.3677334532 -3.0759717277 -1.1769969707
O 1.0280333765 -0.0366312389 -0.0869836295
C 0.8259315458 0.4528896185 -1.3586642819
O 0.0974996859 1.3920034467 -1.5867136463
C 1.6180121455 -0.2875859897 -2.3576269173
C 2.2789392663 -1.4819777723 -2.0448860846
C 2.9866606864 -2.1559865284 -3.0325986453
C 3.0425925691 -1.6429565656 -4.3274886384
C 2.3859522471 -0.4526123082 -4.6400125090
C 1.6725344637 0.2236061830 -3.6602880611
H 2.2706904744 2.2939684584 5.0324850302
H 2.5622276209 2.7649347377 3.3453413444
H 0.9099292976 2.4039096574 3.9009759226
H 3.2189152895 0.3791010640 3.7156917654
H 1.5736905967 0.0013417749 4.2855981555
H -3.5813517331 -1.8788685061 -1.0527523012
H -5.0680042318 0.0021062022 -0.5221812762
H -3.0615635117 2.4349483319 3.0493248218
H -1.5812308803 3.4307386430 3.1628226510
H -1.4807082089 1.6580719200 3.4016571667
H -0.4807484523 -3.6984578556 -1.2940316693
H -2.1462995140 -3.6336944862 -0.6454430619
H -1.7340360397 -2.7614090281 -2.1602245115
H 2.2285315013 -1.8829497405 -1.0397389119
H 3.4947503010 -3.0842904272 -2.7928532689
H 3.5979257276 -2.1721158322 -5.0955499649
H 2.4309539068 -0.0544622304 -5.6483568927
H 1.1558898198 1.1490845355 -3.8901198383
