35
CONF106
C -4.5383701411 -0.9404861376 1.6425464813
C -3.2473608043 -1.6767018592 1.9002375208
O -2.7498480000 -2.2558561309 0.6310149908
P -1.5292708230 -1.6146459283 -0.1499620906
S -1.2253641109 -2.4102470208 -1.8872108232
O -1.7298395983 -0.0382221362 -0.0448214266
C -1.5979447059 0.8786292626 -1.1866849949
C -1.5240412145 2.2746073770 -0.6224729197
O -0.3452489103 -1.8880699903 0.9784248849
C 0.9016993220 -1.3785430885 0.8598079556
N 1.8646426652 -1.7684247321 1.7253386268
C 2.8984018698 -1.0574732444 1.2896973926
N 2.5750938438 -0.2917618393 0.2331655752
N 1.2577983600 -0.4964378755 -0.0598390317
C 3.3899223111 0.6266365260 -0.5829239827
C 2.7894100056 2.0274237613 -0.5408929844
C 3.5153716707 0.0797792495 -2.0012699698
Cl 4.4633959415 -1.1064401819 1.9863485895
H -4.3768836088 -0.0905827776 0.9741448917
H -4.9286456380 -0.5655004234 2.5941182291
H -5.2839879813 -1.6076048050 1.2017552522
H -3.3878946715 -2.5381052744 2.5564810634
H -2.4804137900 -1.0261176162 2.3294309827
H -0.6924610560 0.6148313867 -1.7386331308
H -2.4727539681 0.7388295601 -1.8281365403
H -0.6504369329 2.3841591714 0.0263059369
H -2.4260867888 2.5163581715 -0.0537539659
H -1.4336125060 2.9851443419 -1.4496793181
H 4.3728742910 0.6340986026 -0.1031730730
H 2.6818272069 2.3787295171 0.4889276737
H 3.4509812854 2.7120961279 -1.0779386695
H 1.8094855771 2.0398629430 -1.0265288503
H 3.9325414998 -0.9309100868 -1.9959912931
H 4.1793848155 0.7303947840 -2.5763304167
H 2.5376337797 0.0605500640 -2.4915025763
