37
CONF3
C -5.2811359666 1.2346651330 0.3485387253
C -4.8645595864 2.0991881440 -0.6589217307
C -3.6099239498 1.9401597124 -1.2308088696
C -2.7554341649 0.9305579559 -0.7848179304
C -3.1613366405 0.0676470359 0.2425019945
C -4.4384724771 0.2214956729 0.7841012001
C -2.3479263957 -1.0866157808 0.7766184858
O -2.7617643178 -2.2342712797 0.6730161112
N -1.2085246055 -0.7503008407 1.4345487354
C -0.2766477371 -1.7746393328 1.8883037347
C 0.6833449304 -2.1978160444 0.7780797721
C 1.5902347663 -1.0903735923 0.3168078399
C 2.3537807634 -1.1944762692 -0.8567844708
C 3.1664586440 -0.1518437709 -1.2650277574
C 3.2072189826 0.9907637445 -0.4737928219
C 2.4416383035 1.0281334367 0.6847401893
N 1.6578345840 0.0184801836 1.0618593678
C 4.1000855539 2.1378983065 -0.8457429570
F 3.6310750207 3.3127496089 -0.3724312213
F 5.3494952929 1.9768233705 -0.3408882848
F 4.2303385089 2.2582252605 -2.1861812437
Cl 2.2907867375 -2.6471243417 -1.8243422367
C -1.4071813101 0.7976431638 -1.4403121950
F -1.0273638085 -0.4918226900 -1.5933159475
F -1.3763373087 1.3658908321 -2.6637795453
F -0.4277528481 1.4105579059 -0.7095502918
H -6.2663847737 1.3442593927 0.7895801000
H -5.5201330200 2.8882631216 -1.0110040399
H -3.2935601275 2.5928612619 -2.0357864300
H -0.8638961973 -2.6418002824 2.2003739788
H 0.2711353574 -1.3862531675 2.7499571821
H 0.1058278241 -2.5760995307 -0.0726593700
H 1.2995571659 -3.0414283973 1.1200771883
H 3.7458755182 -0.2257316308 -2.1779219397
H 2.4493082574 1.9059387003 1.3259160369
H -0.8724829040 0.2000956627 1.3957710681
H -4.7605479244 -0.4752102036 1.5507440918
