30
CONF35
C 4.0107813063 0.1231448527 -1.5742560676
C 3.1440023089 -0.7410547028 -0.6575318674
C 1.9312644283 -0.0071728314 -0.0738233747
C 0.8974043834 0.4089218874 -1.1213492078
C -0.3114469140 1.1549897968 -0.5436800498
C -1.1413563835 0.3590037952 0.4611554382
C -1.6988064594 -0.9697410905 -0.0819178779
C -2.9459558917 -1.2906811935 0.7855541091
C -3.1918986771 -0.0289502505 1.6513731923
C -2.4074708658 1.0794704472 0.9412834269
H 4.3384197859 1.0307127182 -1.0539796039
H 4.9045707310 -0.4203049176 -1.8973124744
H 3.4694128554 0.4313120366 -2.4739884745
H 3.7615826121 -1.1136238349 0.1693483200
H 2.7962172559 -1.6267393503 -1.2064909139
H 1.4528426972 -0.6590342046 0.6676361808
H 2.2748588876 0.8847011227 0.4705770482
H 0.5539226886 -0.4854683303 -1.6596141913
H 1.3735888235 1.0541369900 -1.8696767266
H -0.9707712801 1.4543432492 -1.3711609665
H 0.0340386161 2.0838347380 -0.0677741721
H -0.5300187626 0.1448553835 1.3499833877
H -0.9551679491 -1.7726171151 -0.0629994832
H -1.9921012344 -0.8271146873 -1.1301493469
H -2.7903853456 -2.1755665557 1.4100343608
H -3.8114886872 -1.4994936087 0.1490396739
H -2.7785723991 -0.1761086143 2.6561062652
H -4.2554505241 0.2022320197 1.7662351995
H -2.9680020736 1.4423929484 0.0677951320
H -2.1940146420 1.9396193176 1.5852413731
