47
CONF64
C -0.6400221941 -2.9176360658 0.4611598475
C -1.2490224233 -1.6910709259 1.1013784705
C -2.7360111185 -1.6263196501 1.3723246583
C -2.1535006309 -0.8491521432 0.1955393979
C -2.0983841896 0.6161956012 0.2690399322
O -2.2708749503 1.3168323806 1.2420760535
O -1.7657177029 1.1271712732 -0.9602094563
C -1.4892073609 2.5432627982 -0.9609935837
C -1.4917703204 2.9396497528 -2.3703875099
N -1.4677011407 3.2882704126 -3.4709629945
C -0.1502401363 2.8679096412 -0.3189526998
C 0.8835340656 1.9364015945 -0.3878525937
C 2.1055759679 2.2473683575 0.2029246115
C 2.3002859957 3.4735914734 0.8406686303
C 1.2570375067 4.3884222160 0.8926801682
C 0.0229954426 4.0937631072 0.3157707461
O 3.1668860050 1.3735595088 0.2390050163
C 3.1492330823 0.2561259615 -0.5916879277
C 3.1744899780 -0.9970913669 0.0062101283
C 3.2304243810 -2.1301543919 -0.8034667737
C 3.2534123080 -2.0029237904 -2.1900778786
C 3.2311046928 -0.7353395674 -2.7717060303
C 3.1835023731 0.4045671686 -1.9748168840
C -3.6341646300 -2.7487205374 1.0911282863
C -4.6601040032 -3.1225371047 1.8559958268
Cl -5.6807177386 -4.4784094364 1.4471570188
Cl -5.1142451132 -2.3296444531 3.3400721033
C -0.3348897433 -1.0105437725 2.0936083691
H -1.2762432797 -3.3521574139 -0.3121181883
H -0.4479396800 -3.6795236843 1.2247996531
H 0.3177531007 -2.6502989124 0.0015550779
H -3.0045417697 -1.0005161526 2.2178972209
H -2.3062782473 -1.2546469711 -0.7989662447
H -2.2919170935 3.0868241860 -0.4479737989
H 0.7314244358 0.9806391165 -0.8757295885
H 3.2616665873 3.6891056539 1.2947107309
H 1.4052767909 5.3387849517 1.3949812610
H -0.7952261840 4.8050652842 0.3658441361
H 3.1527966754 -1.0759027072 1.0880997431
H 3.2514520277 -3.1138653319 -0.3450824134
H 3.2931639558 -2.8876209863 -2.8170732964
H 3.2582329103 -0.6305830728 -3.8517484963
H 3.1712497216 1.3970817105 -2.4141608012
H -3.4667364775 -3.3311457901 0.1902179813
H -0.0459888202 -1.7306092614 2.8664137170
H -0.8073639328 -0.1549332985 2.5787441345
H 0.5773123950 -0.6692446634 1.5910109390
