50
CONF7
C 3.6562233644 0.6484128966 0.8568898595
Si 2.4289643090 0.7282560302 -0.5489764213
O 1.3590479905 1.9469663574 -0.2771792049
Si 0.0897074018 2.3311273170 0.6981023111
O -1.2982359811 1.6806247470 0.1101200060
Si -2.0326443140 0.8700792305 -1.1189310983
O -2.2633402790 -0.6962567715 -0.6568820609
Si -1.9394401793 -1.6229084428 0.6647686392
O -0.3066679941 -1.7231822924 0.8899237055
Si 1.0508322619 -2.0667834270 0.0249001752
O 1.6111026159 -0.6912812132 -0.6767801056
C 0.6664969013 -3.2551865837 -1.3591388391
C 2.3078191497 -2.7458983099 1.2222703341
C -2.6642265697 -0.8541152224 2.1984585177
C -2.6446987977 -3.3163768982 0.3313188369
C -0.9821291816 0.8758409075 -2.6577106899
C -3.7012408184 1.6498269481 -1.3924679143
C 0.3643506505 1.6486785953 2.4133346982
C -0.0759192343 4.1850498790 0.6873369258
C 3.2545867159 1.0632121124 -2.1813119187
H 4.2048488257 1.5929053337 0.9393668496
H 4.3868252784 -0.1527989226 0.7031129812
H 3.1568747306 0.4686988051 1.8143319471
H 1.5639323054 -3.4593729674 -1.9525535034
H -0.0878089094 -2.8313863706 -2.0315408600
H 0.2880974648 -4.2093446402 -0.9784195924
H 1.9637682971 -3.6972288678 1.6415823052
H 3.2726695399 -2.9201496698 0.7349201515
H 2.4685234762 -2.0549902758 2.0561203475
H -3.7549895610 -0.7912863188 2.1232343276
H -2.4185219872 -1.4409589624 3.0896092154
H -2.2751677473 0.1588005754 2.3391766667
H -2.2682310529 -3.7230416518 -0.6124231760
H -3.7366137597 -3.2713957341 0.2610442418
H -2.3860953234 -4.0169028246 1.1321843815
H -1.5284107510 0.4328426730 -3.4974190942
H -0.6882327648 1.8922683130 -2.9398739256
H -0.0727859418 0.2885693880 -2.4965253231
H -3.6026723393 2.6864750246 -1.7314169903
H -4.2756543459 1.0992309456 -2.1444121628
H -4.2788400899 1.6540005673 -0.4620046773
H -0.4637770195 1.9180658049 3.0777158402
H 0.4271385021 0.5546291843 2.3878947532
H 1.2872375567 2.0402073042 2.8541578849
H -0.9434280620 4.5059314992 1.2729728440
H -0.2062630398 4.5513273643 -0.3365549051
H 0.8146284721 4.6659951017 1.1047528667
H 3.7768390030 2.0252235167 -2.1675629493
H 3.9831748773 0.2828654333 -2.4238916019
H 2.5123463483 1.0947347286 -2.9856246095
