24
CONF19
C 2.8164938748 -0.0794394892 -0.0795677616
C 1.5191727272 -0.3910933022 -0.8180123920
C 0.2683892180 0.0033382712 -0.0122628083
C -1.0199455368 -0.2671366458 -0.7795027149
C -2.2645061890 -0.0663040269 0.1171431375
C -2.3246341095 1.3010790682 0.7498440028
O -2.5009250220 1.4344617449 1.9489620099
O -2.3284401150 -1.0850752995 1.0926401405
O -1.0558116081 0.6409753196 -1.8799572322
O 0.3208311918 1.3773482807 0.3891060555
O 1.4627138216 -1.7818282555 -1.1502295985
O 2.9634012047 -0.9052641255 1.0865358465
H 3.6574500046 -0.3255890839 -0.7354221015
H 2.8666954629 0.9852337973 0.1750975618
H 1.5189683492 0.1610165453 -1.7665859938
H 0.2396684341 -0.5837859214 0.9139558360
H -1.0237036315 -1.3104200939 -1.1186064804
H -3.1430404198 -0.1178410583 -0.5537762501
H -2.2777578047 2.1640549061 0.0643804061
H -2.4303957175 -0.6328789192 1.9484416593
H -1.7216570324 0.3370819828 -2.5090848304
H 0.2982630983 1.9148501510 -0.4164688296
H 1.7071607963 -2.2618605619 -0.3445555830
H 2.4516092199 -0.5109230826 1.8036193387
