47
CONF35
C -5.6024342218 -1.8228768541 -0.6082650774
O -4.6966890826 -0.9497168612 -1.3298165493
P -4.6703339944 0.6204459277 -1.0174862219
S -3.3582174509 1.5985050407 -2.0196815709
O -6.2244249189 0.9951222538 -1.1791400843
C -6.6341128972 2.3733751718 -1.0365397097
O -4.5691969499 0.7295767961 0.6176293906
C -3.3603562753 0.6995327010 1.3028080807
C -3.1909278584 1.6250123572 2.3223887284
C -2.0142598359 1.6190865519 3.0625884585
C -1.0191946727 0.6790765834 2.7910508712
C -1.2118719669 -0.2576357615 1.7726216125
C -2.3769054936 -0.2442907916 1.0191610018
S 0.4491395150 0.6666573055 3.8096754537
C 1.7392863581 0.4461226265 2.5915315826
C 2.7882283793 -0.4269828645 2.8838445673
C 3.8362259306 -0.5861769800 1.9835514591
C 3.8120008874 0.1178722743 0.7898678224
C 2.7745444151 0.9900034783 0.4812438771
C 1.7421812827 1.1630544622 1.3919532205
O 4.8781584752 -0.0202931562 -0.1028213986
P 4.7726871894 -1.0609550431 -1.3458081010
S 4.1544633481 -2.8454055599 -0.9409068194
O 6.2470441297 -0.9083460458 -1.9602169224
C 7.3384806377 -1.6641780210 -1.3893517939
O 3.9129654298 -0.1897805189 -2.3810472141
C 3.3511338454 -0.8122222054 -3.5594481377
H -6.6381254777 -1.5902466003 -0.8682349375
H -5.4531258354 -1.7223103966 0.4712171837
H -5.3521548630 -2.8348913199 -0.9275706624
H -6.4766159460 2.7098434125 -0.0069124773
H -6.0736130981 3.0071277358 -1.7302409042
H -7.6971264771 2.3963931521 -1.2781707775
H -3.9692076557 2.3550847567 2.5144790317
H -1.8615171884 2.3577428566 3.8423784732
H -0.4441362716 -0.9941715048 1.5611342926
H -2.5203860227 -0.9636421559 0.2201333002
H 2.7767811000 -0.9950987930 3.8079739585
H 4.6507073138 -1.2721207021 2.1852977110
H 2.7902434943 1.5294375257 -0.4588389653
H 0.9322693149 1.8485289624 1.1669148680
H 7.5447343898 -1.3197173315 -0.3709951972
H 7.0992409918 -2.7316973817 -1.3840328878
H 8.2004785359 -1.4701491878 -2.0283813445
H 2.7095032374 -0.0575109582 -4.0150795793
H 4.1488824317 -1.0946480646 -4.2531473151
H 2.7655527518 -1.6925366716 -3.2802643160
