38
CONF78
C 1.9253682491 1.5383458528 2.4742912537
C 1.8766974412 0.3989175998 1.4608010836
C 2.1547796343 -0.9484138655 2.1350215558
N 2.8214156409 0.6951895197 0.3620728989
C 2.6399265365 -0.1037777590 -0.8586403112
C 1.9704054939 0.7427516682 -1.9464416478
O 2.7253720521 1.9383834830 -2.1670446930
C 0.5448377484 1.1578747722 -1.5994757225
O -0.2198819912 -0.0365721185 -1.3869439974
C -1.4911076315 0.0957433417 -0.9099773014
C -2.1515950548 1.3027765010 -0.7091164614
C -3.4713268159 1.3175604316 -0.2092258054
C -4.1584675237 0.1550086455 0.0993893932
C -3.4787017687 -1.0503507193 -0.1078639494
N -3.8818914376 -2.3474264883 0.1044909938
C -2.8646264138 -3.2107134989 -0.2386421351
C -1.7823621004 -2.4890594671 -0.6800219739
C -2.1524537764 -1.1093591356 -0.6056655924
H 1.6624696991 2.4899301617 2.0022748380
H 1.2317703002 1.3527223217 3.3004247475
H 2.9345622924 1.6289625925 2.8940443770
H 0.8712397574 0.3643565611 1.0215527139
H 1.4028868123 -1.1611502576 2.9024646181
H 3.1397890247 -0.9305808934 2.6172615885
H 2.1400025667 -1.7703408185 1.4121140334
H 3.7643874792 0.5704035958 0.7144967756
H 3.6189133819 -0.4145670188 -1.2407775855
H 2.0505034815 -1.0155866587 -0.6899027597
H 1.9682668968 0.1816741385 -2.8887693550
H 2.9599635675 2.2377983302 -1.2706202184
H 0.5513210403 1.7766535040 -0.6908284231
H 0.1154211435 1.7447651632 -2.4219432001
H -1.6679298308 2.2443307661 -0.9386373478
H -3.9572267881 2.2778826825 -0.0664337011
H -5.1729966098 0.1764854541 0.4827648650
H -4.7830556414 -2.6255211488 0.4585513989
H -2.9959166293 -4.2788810823 -0.1388449357
H -0.8407603320 -2.8962156485 -1.0165311199
