43
CONF1
C -2.6899056027 -0.9317858055 1.0423491604
C -2.7892359485 -2.3512816385 0.4180820079
C -2.4725317403 -2.1166064549 -1.0804461901
C -2.2612857079 -0.5814475588 -1.1797917918
C -0.7762162055 -0.1866304365 -0.9672201575
C -0.2950391279 -0.8146552199 0.3468662511
C -1.2617424518 -0.6114673786 1.5042775072
O 1.0045714452 -0.3020830414 0.7551965376
C 2.0885400775 -0.8085771484 0.1368289870
O 2.0415205876 -1.6862998428 -0.7067129167
C 3.3455737275 -0.1704523009 0.6062800148
C 4.5589229687 -0.6690078507 0.1204875504
C 5.7586628679 -0.0987015174 0.5264557072
C 5.7543190165 0.9755168867 1.4153454556
C 4.5472099160 1.4778165446 1.8981192302
C 3.3435670843 0.9083569586 1.4982510174
C -0.6864286777 1.3210234714 -1.1110062337
O -0.8631423536 1.8778842634 -2.1784580668
O -0.4184440656 1.9770625850 0.0249192843
C -0.3698386255 3.4217829639 -0.0812936374
N -3.0264386647 -0.0001461095 -0.0598157842
C -4.4670933829 0.0294468061 -0.3394093455
H -3.3834953384 -0.7890854397 1.8766375446
H -2.0938128314 -3.0493279215 0.8934720597
H -3.7962331536 -2.7560709937 0.5474322451
H -1.5954165125 -2.6720791045 -1.4246808755
H -3.3122989354 -2.4146891662 -1.7134036079
H -2.6007917827 -0.1676414114 -2.1331805380
H -0.1905816294 -0.5984360488 -1.7966005938
H -0.1696755634 -1.8848560094 0.1588122336
H -0.9764221440 -1.2707861537 2.3311747283
H -1.2188360723 0.4234887142 1.8529940069
H 4.5476530658 -1.5032493590 -0.5724112271
H 6.6981994011 -0.4898654826 0.1496771213
H 6.6920660895 1.4223032812 1.7306781493
H 4.5440011995 2.3159684766 2.5875425671
H 2.4046671323 1.3005214726 1.8709335351
H 0.4105468630 3.7221723287 -0.7842307592
H -1.3367125035 3.8062559279 -0.4148200751
H -0.1404654103 3.7754934628 0.9231348277
H -4.9933379016 0.4247778920 0.5352303476
H -4.8994311112 -0.9555965228 -0.5828926152
H -4.6551681780 0.7009539608 -1.1832763751
