53
CONF157
C 1.3365213820 0.4407638113 0.9377761081
C -0.1500974790 0.6346631957 0.6922077231
N -0.7308585192 -0.5603883352 0.0666546989
C -0.5219115651 -1.6952694985 0.9733074640
C 0.9638496619 -1.8995615218 1.2180596154
N 1.5655901249 -0.7079236491 1.8190650971
C 2.9837592121 -0.9421326091 2.0853104036
C 3.6591497548 0.1529617543 2.8923892713
O 4.0672988832 1.2152807896 2.0322993137
C 4.7292075021 2.2653534037 2.7304914751
C 5.2450623909 3.2308896861 1.6847034930
O 6.1852986533 2.6103289300 0.8150626269
C -2.1530433936 -0.3601587478 -0.2380755571
C -2.7863915006 -1.6243368757 -0.7996895393
C -3.9814085181 -2.1065682198 -0.2703180988
C -4.5884148626 -3.2412376760 -0.8036679610
C -3.9985789346 -3.9092458622 -1.8705601490
C -2.7996266847 -3.4361490093 -2.4008780927
C -2.2002821634 -2.2998791011 -1.8723555952
C -2.3522835804 0.7695048574 -1.2367393291
C -3.4842018773 1.5779892571 -1.1532819124
C -3.7305608535 2.5740438590 -2.0924137975
C -2.8209752466 2.7603714199 -3.1248389957
C -1.6791630282 1.9743395666 -3.2295013025
C -1.4539937175 0.9815672027 -2.2840108388
Cl -3.1129287652 4.0178579724 -4.3144233192
H 1.7432385799 1.3410284787 1.4056055854
H 1.8532916443 0.3121915476 -0.0353460689
H -0.6529715836 0.8603639910 1.6542114958
H -0.2921516496 1.4957436483 0.0321749259
H -0.9376354057 -2.6012442815 0.5225563878
H -1.0336898077 -1.5317262151 1.9430009028
H 1.4502876535 -2.1598453487 0.2553559210
H 1.0996516714 -2.7472758048 1.9011495716
H 3.0561351595 -1.8706128922 2.6658979256
H 3.5667756976 -1.0977589373 1.1539709228
H 4.5461750905 -0.2624051136 3.3987227462
H 2.9680776161 0.5281977694 3.6651090731
H 5.5693699003 1.8590364026 3.3178902630
H 4.0336068337 2.7760913408 3.4184606915
H 5.7636404967 4.0609703414 2.1754066125
H 4.3937637320 3.6426536087 1.1190536017
H 5.7597653823 1.8074108503 0.4893890248
H -2.7148217140 -0.0938214846 0.6811387510
H -4.4396208786 -1.5913031529 0.5697603779
H -5.5196260441 -3.6044772366 -0.3804951468
H -4.4676678464 -4.7948412012 -2.2868458029
H -2.3322723875 -3.9550911766 -3.2319604505
H -1.2636512640 -1.9357872483 -2.2815901790
H -4.1925561605 1.4270814043 -0.3431377456
H -4.6125365252 3.1998397866 -2.0218193097
H -0.9767467827 2.1411491457 -4.0380274703
H -0.5588477069 0.3713670773 -2.3459327860
