27
CONF54
C -3.0558000765 0.9657625478 -0.0310683533
C -4.5754507622 1.1627995863 -0.0994916322
O -4.9141668685 2.1450542269 -1.0734558949
C -2.6636201580 -0.0581012877 1.0073070689
C -1.1303138710 -0.2090836457 1.2720144715
C -0.2594499667 -0.4903274387 0.0043701879
C 1.1752056622 -1.0341224162 0.3304910414
C 2.1818613847 -0.8694047059 -0.8586689915
C 3.4586490704 -1.7649520646 -0.7404007453
F 4.0082752826 -1.6349985191 0.4750692607
F 4.3470353867 -1.3686028773 -1.6620834830
F 3.1658619523 -3.0510129320 -0.9563049739
F 2.5878336176 0.4166847188 -0.9126973250
F 1.5654490991 -1.1902735804 -2.0209237884
F 1.6706790925 -0.3682852635 1.3968809124
F 1.0784290323 -2.3477836855 0.6360498276
F -0.8886210414 -1.3950165716 -0.7807171039
F -0.1348211711 0.6707673468 -0.6909521739
F -0.6925330308 0.9456341797 1.8328065215
F -0.9448377596 -1.2207004698 2.1539455500
F -3.1558419031 -1.2927601917 0.6844027089
F -3.2001075532 0.2725053655 2.2255123871
H -2.6784519289 0.6300110739 -1.0028264372
H -2.5725379617 1.9180894981 0.2076293459
H -5.0772587856 0.2062859244 -0.2991828951
H -4.9458466661 1.5450944060 0.8544867813
H -4.7635192374 1.7723027916 -1.9489429077
