21
CONF1
C 0.9370085463 -1.1142508091 0.1324189886
C -0.0510202429 0.0638717898 0.1790398710
C 0.6600471344 1.3946726926 -0.1288477978
O 1.0712380676 1.5394246659 -1.4982236788
C -1.2471512719 -0.1604418758 -0.7611117594
O -0.8792728324 -0.4396876608 -2.1240158563
C -0.5852420825 0.2006383971 1.6110355016
O -1.1702802176 -1.0402530240 2.0270386196
O 1.6798939112 -1.2015815712 -1.0995788308
H 0.4016942126 -2.0546647642 0.3149640903
H 1.6844165171 -0.9873776501 0.9242593274
H -0.0278628086 2.2256015888 0.0656429073
H 1.5265900874 1.5056354563 0.5406345135
H 1.6990281284 0.8165729845 -1.6592100914
H -1.8156981774 -1.0306646739 -0.4213562568
H -1.9084225824 0.7192632932 -0.7188102469
H -0.3941911498 0.3426071917 -2.4312153065
H 0.2440415421 0.4779145059 2.2795544118
H -1.3324106046 1.0082549915 1.6403822016
H -1.5105734464 -0.9154615980 2.9209482909
H 1.0181675657 -1.3500736341 -1.7935489095
