119
CONF132
C 3.4287875247 -0.5491804562 -0.7312706971
C 4.0524116772 0.0212913733 -2.0095604559
C 5.2440700533 0.9291301775 -1.7067733852
C 6.3032468345 0.2132946312 -0.8581431152
C 5.6848953768 -0.3800894246 0.4253235408
C 6.7700850218 -1.0512213012 1.2733449851
C 7.9096219976 -0.0946770614 1.5970681665
O 8.8636972524 -0.7061665020 2.4802388512
C 8.5956294211 0.4815761510 0.3276995545
C 9.3929889742 -0.6092328549 -0.3852884742
C 9.4698181056 1.7076504410 0.8079167767
C 8.5519016756 2.9574579081 0.6468064531
C 7.1852409657 2.4436653673 0.1642861908
C 7.5049447925 1.1333319237 -0.5637287750
O 8.1733463422 1.4583330163 -1.8072540883
C 10.7989172747 1.8455137434 0.1464129559
C 11.9912533616 1.5361936181 0.6871407245
C 13.0524876581 1.8147917025 -0.2706460942
O 14.2578520613 1.6757504527 -0.1825730202
O 12.4799965629 2.3118772764 -1.4145229563
C 11.0461636484 2.3616685057 -1.2394760305
C 4.4773849105 -1.3197408268 0.1186856495
C 4.9243128592 -2.5867160389 -0.6299129849
C 3.7779302651 -1.7965204279 1.4118386083
C 3.1012461991 -0.6844034733 2.2102613725
C 2.0835808577 0.0636114529 1.3615165998
C 2.7172979612 0.5567413675 0.0658979931
O 0.9977393656 -0.8707338585 1.0930144945
C -0.2207392423 -0.2672951026 0.7953322648
C -1.1663569563 -1.3216550047 0.2536569762
C -2.5582945771 -0.7429509161 0.0298978009
O -2.4984270187 0.1450642072 -1.0911127044
C -3.0331745124 -0.0084893837 1.2959226804
O -4.2322278178 0.7559317384 1.0708385054
C -5.3616173214 0.0207452839 0.7004083868
C -6.6062812973 0.7626430863 1.1437659762
C -7.8599654101 0.0553150510 0.6415544207
O -7.9848720415 -1.1793079731 1.3530797318
C -7.7553371681 -0.1826812190 -0.8754557325
O -8.7989088215 -1.0364692228 -1.3798648972
C -10.1079806579 -0.5878661370 -1.1791966579
C -11.0043755349 -1.1573118358 -2.2613906566
C -12.4658844745 -0.8110007692 -1.9777855138
O -12.6980819157 0.6076030792 -2.0817493348
C -12.8552540635 -1.1950748809 -0.5498911165
O -14.1877160357 -0.7762076248 -0.2576447157
C -11.8541169683 -0.6243105407 0.4652418254
C -12.1155668988 -1.0916750359 1.8800309638
O -10.5364542065 -1.0866100120 0.1011395753
C -6.4396390384 -0.8752956059 -1.2411691142
C -6.2332753548 -1.0174616673 -2.7338087214
O -5.3568629000 -0.0724427495 -0.7367773183
C -1.9833466065 0.9862203995 1.7966701405
C -2.3666103327 1.6418314293 3.1071915590
O -0.7580621871 0.2710888061 2.0183141490
H 2.6609976022 -1.2806570582 -1.0208064402
H 4.3780935608 -0.7985764338 -2.6610331362
H 3.2913879763 0.5812907239 -2.5678854958
H 5.6827207608 1.2716503942 -2.6514181870
H 4.8999161639 1.8247691310 -1.1755897724
H 6.7115691862 -0.6149243111 -1.4542585675
H 5.2908100681 0.4598174680 1.0123780479
H 7.1715838832 -1.9297032059 0.7525259537
H 6.3562863294 -1.4004320544 2.2245158606
H 7.5073918399 0.7428785658 2.1803159549
H 9.1205860339 -1.5552587151 2.0972737791
H 9.8260665849 -0.2402649149 -1.3153298035
H 10.2144849646 -0.9623093613 0.2455818975
H 8.7620792737 -1.4669928046 -0.6352409785
H 9.6905418571 1.5370590559 1.8652731230
H 8.9688693521 3.6478038758 -0.0892678983
H 8.4747276569 3.5062150505 1.5888422930
H 6.6887705630 3.1603170559 -0.4973600542
H 6.5075108055 2.2629077229 1.0035436457
H 7.6377747162 2.1193547580 -2.2637659281
H 12.1824410630 1.1430558507 1.6766340501
H 10.5734345898 1.7492925902 -2.0112630211
H 10.7198827672 3.3988408709 -1.3738088718
H 4.0419254455 -3.1447077928 -0.9629760828
H 5.4996028892 -3.2450898984 0.0290204933
H 5.5368802320 -2.3768441627 -1.5100400802
H 4.4870649929 -2.3372192607 2.0477257913
H 3.0152957109 -2.5286908878 1.1168596369
H 3.8409531165 0.0388692434 2.5743664209
H 2.6017811084 -1.0993176246 3.0930803864
H 1.6734734393 0.9100620090 1.9265070242
H 1.9572396462 1.0237456977 -0.5730754724
H 3.4164896787 1.3554652984 0.3385381026
H -0.0966222915 0.5666783308 0.0825196499
H -0.7847743880 -1.7278562736 -0.6886671491
H -1.2205832975 -2.1355550172 0.9855489100
H -3.2559759201 -1.5650000392 -0.1863430536
H -3.4203751985 0.3769749048 -1.2859042852
H -3.2185694340 -0.7548567498 2.0854143201
H -5.3235883624 -0.9985399198 1.1206862272
H -6.5620304377 1.7785356415 0.7355372111
H -6.6376930113 0.8274073309 2.2358805603
H -8.7334833662 0.6917499329 0.8440717630
H -8.8654796270 -1.5179899608 1.1226311557
H -7.7985965630 0.7927043462 -1.3866718088
H -10.1490815808 0.5144956288 -1.1603071377
H -10.7106637646 -0.7630067006 -3.2403130887
H -10.8775856968 -2.2465814492 -2.2759574950
H -13.1218178014 -1.3447314010 -2.6788422676
H -12.7189630849 0.8394839812 -3.0181633256
H -12.8381499344 -2.2891512692 -0.4673802690
H -14.2670481739 0.1282870201 -0.5955635297
H -11.8756347237 0.4766695714 0.4162255610
H -12.0698390000 -2.1847247944 1.9327017845
H -13.1062572017 -0.7663976301 2.2055600435
H -11.3688278461 -0.6730401745 2.5609690074
H -6.4147703607 -1.8627990533 -0.7536611721
H -6.2609671359 -0.0344275703 -3.2156048247
H -7.0170971483 -1.6426181287 -3.1665546634
H -5.2638653419 -1.4827935065 -2.9341689410
H -1.8252161106 1.7522081705 1.0195583167
H -2.5344269234 0.8811714787 3.8770356210
H -3.2814610678 2.2260625937 2.9869594407
H -1.5666099223 2.3096985158 3.4388701200
