82
CONF20
C -3.7126958363 3.7627308811 -0.3415744682
C -3.9943806430 2.7052138806 -1.3726639441
C -4.1003530762 3.0097967254 -2.6711703963
C -4.2187021603 1.2947897738 -0.8815621169
C -5.6070401278 1.1765252389 -0.1509538750
C -5.3466820884 0.4457561402 1.1865898638
C -4.0329833995 -0.3087991389 0.9489295041
C -3.2244037246 0.7564122414 0.1726857980
C -1.8497788712 0.2468167066 -0.2660232999
C -1.0619295364 1.2343211723 -1.1240760162
C 0.2464199802 0.6182451401 -1.6232973314
C 1.1148232870 0.1101476475 -0.4658771339
C 2.5797408935 -0.2834275726 -0.8899651650
C 3.2451271138 0.9762174046 -1.4948607886
C 4.7589116194 0.8481205930 -1.6477151563
C 5.4326021077 0.5210837429 -0.3290126606
C 4.8974229773 -0.7789219687 0.3219345318
C 3.3460622449 -0.6255556492 0.4247147094
C 2.6469574521 -1.7601112374 1.1762339436
C 1.2384982796 -1.3361380740 1.5964669240
C 0.3349054920 -0.9211859995 0.4177673047
C -1.0010248664 -0.2240630173 0.9645885094
C -1.8393559684 -1.2089827234 1.8242923816
C -3.2364319285 -0.6853112085 2.1987214806
C -0.6677491883 0.9758084029 1.8837939663
C -0.0080264863 -2.2012902198 -0.3707887994
C 5.3628339200 -2.0243899704 -0.4451451850
C 5.4824385444 -0.8612939645 1.7455164479
O 6.8476450323 0.4782117659 -0.5962051162
C 2.6201035736 -1.3969658772 -1.9601288648
C -4.3306657250 -1.5535035910 0.0868332145
O -5.1387858251 -2.5248884527 0.7753762248
H -3.7937577749 4.7641765191 -0.7713692982
H -4.4028998999 3.6869962288 0.5069586095
H -2.7017841309 3.6473170613 0.0673475372
H -3.9940660894 4.0322873942 -3.0240724726
H -4.2881363598 2.2397470582 -3.4154323902
H -4.2142742777 0.6343917765 -1.7573782884
H -6.0500343530 2.1630192938 0.0138629234
H -6.3068142769 0.6211775029 -0.7828157057
H -5.2021326946 1.1723158645 1.9958021190
H -6.1700236916 -0.2156206600 1.4735038149
H -3.0783018047 1.5735000616 0.8908444478
H -2.0239249534 -0.6353705990 -0.8935425365
H -1.6705790364 1.5423552853 -1.9807786084
H -0.8499062647 2.1467623026 -0.5502028320
H 0.7905599928 1.3698465664 -2.2032938020
H 0.0066631513 -0.1945837473 -2.3198798862
H 1.2841792540 0.9788240178 0.1824817015
H 3.0283249667 1.8380430438 -0.8471581766
H 2.8127922151 1.1973265573 -2.4762049756
H 5.0204405406 0.0823640848 -2.3879547400
H 5.1689498654 1.7926660726 -2.0246384076
H 5.2247786809 1.3432861459 0.3782828389
H 3.2119402916 0.2728814697 1.0530483461
H 3.2045606258 -2.0207038133 2.0807619502
H 2.6176147967 -2.6713221488 0.5682558230
H 1.3473547076 -0.4932073891 2.2879691310
H 0.7600006737 -2.1494099816 2.1556931917
H -1.9686377425 -2.1578434485 1.2980436466
H -1.2897707695 -1.4418070775 2.7431972209
H -3.7618602239 -1.4429929112 2.7952616905
H -3.1570380311 0.2023554595 2.8384397854
H 0.0979480306 1.6399324016 1.4806119150
H -0.3243670297 0.6272031436 2.8616602268
H -1.5508126235 1.5911982657 2.0661841160
H -0.5598430919 -2.9076446070 0.2538541838
H 0.8985581016 -2.7138152322 -0.6860032396
H -0.5986469837 -2.0170816873 -1.2703913060
H 4.8594786610 -2.9178269905 -0.0621955153
H 5.1707090972 -1.9621821822 -1.5168888461
H 6.4394922657 -2.1635892565 -0.3081036027
H 6.5757633215 -0.7880148145 1.7241508677
H 5.2502942532 -1.8170858087 2.2224446698
H 5.0961313260 -0.0551827306 2.3801474262
H 7.3151207582 0.4338175048 0.2461415949
H 2.6968959416 -2.4006105072 -1.5383292429
H 1.7239321507 -1.3671613664 -2.5856149659
H 3.4743975679 -1.2704327634 -2.6291745382
H -4.9108216530 -1.2713692563 -0.7962211324
H -3.4087637482 -2.0289516971 -0.2666660598
H -4.5831891959 -2.9553491187 1.4359365477
