44
CONF40
C 4.7992960908 2.0049637431 -2.2027408504
C 3.7105074174 1.2901714570 -1.4085618689
C 2.7824546372 0.3690586085 -2.2853324170
N 1.5136041723 0.3145814068 -1.5974512641
C 1.0494727001 1.5280293496 -0.9121325083
S 2.5457248813 2.5797438508 -0.6931432913
C 0.5334665495 0.6108609687 0.2513999370
C 1.1045658141 -0.5523651999 -0.5914958500
O 1.2009820344 -1.7510747843 -0.4710660338
N -0.8543436635 0.5919058940 0.5811495743
C -1.3287900941 0.9930115619 1.7946865197
O -0.6012918628 1.4044352463 2.6930901415
C -2.8616650141 0.8760801691 1.9472824066
C -3.2654653938 -0.5840882126 1.9651372822
C -4.3072739231 -1.0484901626 1.1628300675
C -4.7072631685 -2.3808033587 1.2039556537
C -4.0595306479 -3.2684244452 2.0640871483
C -3.0114955114 -2.8207656384 2.8716237212
C -2.6223738661 -1.4896972335 2.8152461726
O -4.4032620949 -4.5869076234 2.1573724577
N -3.3779937267 1.5662165553 3.1288356861
C 2.5900474986 0.9057579295 -3.6952257430
O 3.5126326578 0.4047781472 -4.5335872057
O 1.7273597013 1.6899153454 -4.0194720693
C 4.3280473433 0.4546682331 -0.2868868804
H 5.3891652489 2.6368244792 -1.5330899078
H 4.3853437558 2.6351659631 -2.9942214852
H 5.4718970959 1.2661721869 -2.6501312351
H 3.2173870109 -0.6340325970 -2.3348381335
H 0.2733906664 2.0878309238 -1.4395660039
H -1.5127787513 0.2694036372 -0.1147276953
H -4.8186818727 -0.3604909294 0.4952177693
H -5.5200907710 -2.7301987425 0.5727647297
H -2.5110504407 -3.5221386803 3.5313956471
H -1.8009096372 -1.1534847104 3.4434234689
H -5.1429114571 -4.7718540636 1.5631201618
H -2.9845792886 1.1295737889 3.9583259345
H -3.0241361939 2.5193241248 3.1344151291
H 4.8807993006 1.1027133816 0.3979657520
H 3.5704977862 -0.0812328494 0.2916516307
H 5.0224376920 -0.2778929299 -0.7143951271
H 3.3840976421 0.8063172565 -5.4110487489
H -3.3069400394 1.3425962946 1.0582319675
H 1.1221232446 0.7506008642 1.1632162487
