52
CONF4
C 1.2887228027 0.5415838543 -1.6889220830
C 1.5797770905 0.1555442031 -0.2322285937
C 1.1460253773 1.2459725449 0.7632867080
C -0.2330880701 1.0061690582 1.3652449411
O -0.5164618936 1.4177564900 2.4770545715
C -1.1800370866 0.2511287650 0.4562528432
C -0.6264022436 -1.1828880670 0.2085817373
C 0.9181047546 -1.1750628797 0.1940721439
C 1.6641038440 -2.2470730266 -0.5996868123
C 3.1196857401 -1.7167258714 -0.6674047881
C 3.1073513311 -0.2764942671 -0.0990340039
C 4.0245818583 0.6820098107 -0.8416152558
O 4.2865485212 0.5600905011 -2.0274978285
C 4.5821813583 1.8630112734 -0.0801135356
O 5.2912203769 2.7398760559 -0.9321791951
O 3.5582117633 -0.2292679328 1.2594022526
C -1.3446229200 -1.7903855638 -0.9935902313
C -2.8637574441 -1.8090033584 -0.7278900143
C -3.3719133581 -0.4466488824 -0.3629462111
C -4.3327052557 0.1574174413 -1.0913634218
C -4.7969329486 1.5130155570 -0.8277107361
O -5.6978620751 2.0385743624 -1.5009340581
C -4.1374670661 2.2293902842 0.2642316472
C -3.1788337542 1.6501912283 0.9999130961
C -2.7046545681 0.2420535697 0.8088116926
C -3.0244605999 -0.5173010022 2.1241655497
H 0.2201852780 0.6660446345 -1.8666376113
H 1.6552117609 -0.2094636198 -2.3925468909
H 1.7702432879 1.4932105827 -1.9330091729
H 1.8482483366 1.3250177529 1.5977682219
H 1.0987879280 2.2313772842 0.2772192235
H -1.1095315347 0.7860051044 -0.5009802468
H -0.9059648807 -1.7909424529 1.0769215183
H 1.2008208269 -1.2982886904 1.2514849173
H 1.2470405793 -2.3448090625 -1.6057588857
H 1.6022132701 -3.2287278318 -0.1224778250
H 3.8123992195 -2.3176020519 -0.0714941285
H 3.4938647531 -1.7095414740 -1.6929359317
H 3.7479188639 2.3849300951 0.4139528302
H 5.2320994299 1.4821359267 0.7203818815
H 5.2682978609 2.3281199376 -1.8133294534
H 3.1678267002 -0.9675120049 1.7435199265
H -1.0043258723 -2.8173400720 -1.1600549233
H -1.1368575100 -1.2195812944 -1.9065972692
H -3.0597083483 -2.5088636552 0.0956340698
H -3.4020073560 -2.1787812824 -1.6048332737
H -4.7891913294 -0.3566735027 -1.9341709759
H -4.4649343136 3.2471059032 0.4584995633
H -2.7185156189 2.1931387719 1.8202411264
H -2.5378280422 -0.0218886354 2.9657546297
H -2.6874195238 -1.5540240721 2.0838774469
H -4.1061894163 -0.5159807352 2.2856876221
