21
CONF1
C 1.4691847301 -1.6290884678 0.0333665565
C 0.6424984345 -0.5086972996 -0.0143235814
C -0.7725699029 -0.2597614137 0.1377584367
C -0.9292271127 1.1228899587 -0.0350368137
C -2.1507110573 1.7692687600 0.0360251956
C -3.2763502440 0.9780531282 0.2956450217
C -3.1532201802 -0.4172505386 0.4749025476
C -1.9018540857 -1.0350604882 0.3956910454
Cl -1.7327360997 -2.7447784681 0.6128513841
Cl -4.5616254167 -1.3668185792 0.7964346293
Cl -4.8268696312 1.7277082921 0.3970788446
Cl -2.2374042999 3.4759997213 -0.1908324829
O 0.2628525974 1.7458631405 -0.2796947746
C 1.2049273310 0.7515420513 -0.2648694115
C 2.5592360598 0.9495016109 -0.4705786719
C 3.3882990853 -0.1795462156 -0.4220295378
C 2.8301904253 -1.4500517927 -0.1710088377
Cl 3.8605674605 -2.8506090964 -0.1124401472
Cl 5.0859247297 0.0013055152 -0.6711648316
Cl 3.1614849010 2.5378729040 -0.7710415949
H 1.0774033758 -2.6183429222 0.2232667237
