39
CONF46
C -0.2404318909 -3.2097686338 1.7534448044
C -1.2710910828 -2.2000777921 2.1622658446
C -0.9626002065 -0.8473903961 2.3143310790
C -1.9094453750 0.1239030370 2.6837332777
C -3.2122246849 -0.3230384121 2.9605347535
C -3.5550111118 -1.6578272099 2.7975841389
C -2.5949409269 -2.5735334818 2.3946555010
Cl -4.4092229917 0.7753039901 3.5797029240
N -1.5901283566 1.4927464071 2.8169135165
S -1.9540765374 2.5355298392 1.4821788424
O -3.2516071244 2.1317909807 0.9604921858
O -1.6361636357 3.8772646100 1.9483865597
C -0.7085117280 2.0704234954 0.2647723319
N -0.9684277510 1.0884769582 -0.5954985029
N 0.2352112634 0.9876552955 -1.2127599554
C 0.5899126107 0.1239946364 -2.2112134731
C 1.8792720065 0.2128400859 -2.6735247951
C 2.7384864518 1.1818875410 -2.0877477269
N 2.4051733346 2.0141046593 -1.1241262084
C 1.1466403122 1.9152065284 -0.6820232666
N 0.5288300948 2.6085710454 0.2714652506
O 3.9793599938 1.2063648129 -2.5947188605
C 4.8870535992 2.1796260765 -2.0351858414
O -0.3762980349 -0.6963736797 -2.5997427558
C -0.0609502848 -1.6144973283 -3.6607270293
Cl 0.7020002997 -0.3396977615 2.0683449183
H 0.5780066157 -3.2598737257 2.4788757119
H -0.6918007862 -4.2004580343 1.6712752028
H 0.2043840883 -2.9486777766 0.7873189184
H -4.5692875753 -1.9752853019 3.0067228743
H -2.8741940818 -3.6155586218 2.2743601427
H -0.6311459509 1.6693949960 3.1078377284
H 2.2542613353 -0.4250742446 -3.4596571259
H 5.8204753550 2.0366431316 -2.5788209593
H 5.0277465086 2.0015320529 -0.9661641718
H 4.5014360394 3.1914665512 -2.1828266977
H 0.7477818821 -2.2880466462 -3.3575436105
H 0.2172099657 -1.0693471167 -4.5688360997
H -0.9756808193 -2.1801998690 -3.8298184188
