52
CONF9
C 1.8012094018 0.6069973938 -0.1933636965
C 2.9220974170 1.3387835666 -0.9493597387
C 4.2252963957 0.6636480583 -0.4486614918
C 3.7818032386 -0.5111847836 0.4888887461
O 4.6019932790 -1.6789205658 0.3499837333
C 3.8047937484 -0.0694396443 1.8836049348
C 3.9047947307 0.2929336437 3.0293113685
C 2.3373517939 -0.8220586031 -0.0069477826
C 2.4444945875 -1.6012137436 -1.3268577457
C 1.4293686922 -1.5579937224 0.9751874913
C -0.0237154860 -1.5513728423 0.4779232999
C -0.5532997930 -0.1340275989 0.1878121760
C 0.3835801220 0.6575303040 -0.7529718511
C -0.1068502597 2.0971238897 -0.8835929883
C -1.5343942207 2.1337109080 -1.4240919107
C -2.4868585500 1.3042242202 -0.6137308477
C -3.7336122458 1.7576879186 -0.3628166339
C -4.6580701303 0.8778328844 0.2818102501
C -4.3254494988 -0.3228429197 0.8351889146
C -2.8965743485 -0.7366954311 0.9015669530
C -2.0510010196 -0.1258631011 -0.2598013651
C -2.2928227514 -0.9670242044 -1.5334061465
C -5.5605124414 -0.8143826419 1.3097800162
N -6.5605200866 0.0079026366 1.0596328756
O -5.9804281041 1.1071899836 0.3958524586
H 1.7525120003 1.0454985790 0.8169067872
H 2.9155026530 2.4139796057 -0.7524687311
H 2.8050775642 1.2071113481 -2.0311887450
H 4.8784972752 1.3575806827 0.0850746465
H 4.8027542390 0.2271803308 -1.2677961456
H 5.3929189318 -1.5444734720 0.8846224415
H 3.9717327929 0.6183462617 4.0396204434
H 3.1187182929 -1.1223428637 -2.0405937705
H 1.4685925142 -1.6964569452 -1.8067626950
H 2.8294076065 -2.6050132181 -1.1336490042
H 1.4781988463 -1.0578388013 1.9501479144
H 1.7726501901 -2.5888136332 1.1226481637
H -0.1060456201 -2.1723589441 -0.4204964018
H -0.6488879796 -2.0292068641 1.2386886276
H -0.5321357039 0.4152009731 1.1447623224
H 0.3770076399 0.2005405041 -1.7538270853
H 0.5523139636 2.6665410105 -1.5485258990
H -0.0680115104 2.5810769537 0.1026680369
H -1.9084419246 3.1607639557 -1.4892284267
H -1.5191946804 1.7439628099 -2.4536894034
H -4.0558431409 2.7422603350 -0.6874853154
H -2.8039734071 -1.8266806149 0.8751206931
H -2.4746554729 -0.4070796960 1.8636463502
H -2.0395410713 -2.0173532429 -1.3634134948
H -1.7049807405 -0.6065887235 -2.3815404443
H -3.3512497639 -0.9170887921 -1.8079114126
H -5.7755982779 -1.7412926363 1.8277464216
