46
CONF13
C -3.7957859883 -0.4351520146 -1.5848941516
C -2.4714627229 -0.1453985938 -2.2512280366
C -2.5889279538 0.1998739932 -3.7187167930
C -1.2627592377 -0.9148301992 -1.7630989376
C -0.2166728861 -1.3792846612 -2.6812006889
C 0.1942480698 -2.6418115801 -2.7959856498
Cl 1.4567869894 -3.1160234535 -3.9027649872
Cl -0.4646062740 -3.9637774375 -1.8735252436
C -1.3694200312 0.5799150379 -1.4805980854
C -1.5702115749 1.0304294266 -0.0906000653
O -1.9758361077 0.3607055567 0.8383930996
O -1.2363754668 2.3432578204 0.0222543962
C -1.3391428964 2.9189872110 1.3416143328
C -0.1788648152 2.5496394274 2.2318141631
C 0.9172292516 1.8462259832 1.7463425788
C 1.9579875965 1.5164634807 2.6116153326
O 3.0751568290 0.8388314923 2.1528187907
C 2.8904725048 -0.2628712570 1.3338629315
C 1.8214482558 -1.1423454431 1.5019021237
C 1.7407841195 -2.2690829870 0.6893447951
C 2.7150692007 -2.5225799504 -0.2743056468
C 3.7784062956 -1.6353655160 -0.4259986994
C 3.8700609284 -0.4994693270 0.3739876879
C 1.9459008539 1.9102926241 3.9429687291
C 0.8538096734 2.6365025976 4.4143190461
C -0.2090023158 2.9452692433 3.5729447386
H -3.6773000629 -0.7224090232 -0.5392980040
H -4.2952222672 -1.2524578373 -2.1161048374
H -4.4454281226 0.4461749248 -1.6339382885
H -3.2721825165 1.0459848434 -3.8463192180
H -1.6284556457 0.4671641166 -4.1642219730
H -2.9992987536 -0.6537441000 -4.2696415436
H -1.4565626803 -1.5448514370 -0.8996413185
H 0.2678172920 -0.6528061050 -3.3271746805
H -0.7483159723 1.2356939559 -2.0820210260
H -1.3610152981 3.9985226521 1.1678115292
H -2.2839375361 2.6160458623 1.8037106800
H 0.9693821056 1.5400825146 0.7073484632
H 1.0675038446 -0.9506468005 2.2578158963
H 0.9108324245 -2.9565890326 0.8189165740
H 2.6450187675 -3.4050310468 -0.9014324840
H 4.5419309346 -1.8226985711 -1.1747062039
H 4.6911896628 0.2016890635 0.2667970388
H 2.7735675906 1.6439166627 4.5913780437
H 0.8277188172 2.9475572099 5.4538784087
H -1.0655344743 3.4929426978 3.9555769875
