47
CONF35
C -1.6071330835 3.0972192126 2.0353077294
O -2.1250335701 1.7809341428 1.7217621463
C -1.9714429469 1.3998571032 0.4551739716
C -2.3603966388 0.1782424510 0.0196115946
C -2.1169977133 -0.0985489459 -1.4051382431
O -1.6087832186 0.6775901447 -2.2013784357
O -2.5111317310 -1.3431947948 -1.7520496272
C -2.2705445930 -1.7071376490 -3.1295453847
C -2.9516988452 -0.8409224915 0.9130732565
C -4.2389888153 -1.3421815111 0.6841411470
C -4.8108450725 -2.2907818692 1.5236563102
C -4.0991084751 -2.7669675479 2.6224964397
C -2.8162640565 -2.2923931218 2.8721320991
C -2.2608806446 -1.3477749406 2.0206101367
O -1.0113345755 -0.8432148397 2.3898153890
C 0.0168720465 -0.8725559202 1.5131781014
C 1.0718934297 -0.0032750186 1.7612125310
C 2.0928097141 -0.0541073319 0.8263936585
O 3.1504933742 0.7863815118 1.0204784262
C 4.0463460982 0.9601040231 -0.0252531573
C 5.3170200405 0.4248481450 0.0716752253
C 6.2365955153 0.6752326995 -0.9441557118
C 5.8855116512 1.4538479814 -2.0456303339
C 4.6121463595 1.9972215326 -2.1384167589
C 3.6794701491 1.7556720692 -1.1205221693
C 2.3752363628 2.3138619664 -1.1741561996
N 1.3083959631 2.7648259583 -1.2065999133
N 2.1008353042 -0.8666872318 -0.2272980725
C 1.0388265357 -1.6709448212 -0.3306732457
N -0.0086936205 -1.7279159107 0.4893331360
H -0.5327342150 3.1325250563 1.8323177251
H -2.1324117201 3.8552724590 1.4469147592
H -1.7950996626 3.2477914327 3.0976118352
H -1.5135291270 2.1105360992 -0.2314843847
H -2.8148650413 -1.0390166239 -3.8016645143
H -1.2014754979 -1.6604648442 -3.3526036591
H -2.6372604186 -2.7286913877 -3.2253714040
H -4.7954631724 -0.9649833405 -0.1676847170
H -5.8136856653 -2.6532743702 1.3230853222
H -4.5376746335 -3.5063621496 3.2845290573
H -2.2363609451 -2.6457369156 3.7181327403
H 1.0750366590 0.6858133696 2.5957915469
H 5.5730895410 -0.1823171189 0.9327464391
H 7.2342502762 0.2550029074 -0.8736797993
H 6.6072894120 1.6418433011 -2.8325658764
H 4.3259780012 2.6108380453 -2.9850860503
H 1.0317411651 -2.3560119951 -1.1774240707
