56
CONF129
C -4.1388039633 1.8651314858 -0.9878250254
C -2.6984035672 2.3147600172 -1.2355603263
C -2.6184814058 3.2220999330 -2.4645844639
C -1.7884898251 1.0822212345 -1.4153341148
C -1.7935669238 0.1205996025 -0.2370796317
C -1.3207779625 0.5147338005 1.0164951535
C -1.2390306550 -0.3879951075 2.0713686923
C -1.6291415832 -1.7071766362 1.8638273259
C -2.1499842708 -2.1132195783 0.6404646595
C -2.2228995633 -1.1990801121 -0.4022929260
O -1.5266494841 -2.6809082359 2.8479413981
C -0.3931127332 -2.6431219186 3.6274945782
F -0.2216610513 -3.8823841481 4.1302023099
F -0.5659113141 -1.8009190305 4.6996521597
C -0.3208395518 1.3945541372 -1.6627265021
O 0.4208989702 0.7327479979 -2.3462667344
O 0.0836928140 2.4725352176 -0.9273066918
C 1.5308238536 2.6253708230 -0.7728424224
C 1.7963523959 4.0589504799 -0.7675151645
N 2.0237514549 5.1907342097 -0.7554459975
C 1.9268290825 1.9279208226 0.5073415084
C 1.8036739825 2.5681912469 1.7387705906
C 2.0156621445 1.8407651244 2.9058279713
C 2.3205643638 0.4873075151 2.8500259282
C 2.4398410932 -0.1416298530 1.6111048107
C 2.2669789360 0.5780807194 0.4313851434
O 2.7743002517 -1.4730458086 1.6476384284
C 2.5326928088 -2.2894880657 0.5484779859
C 3.5330561095 -3.1932974127 0.2130552970
C 3.3102042270 -4.0951778963 -0.8224620523
C 2.1044804877 -4.0858060528 -1.5181572739
C 1.1135289456 -3.1730921988 -1.1672602038
C 1.3170786807 -2.2725343962 -0.1279802209
H -4.5139837403 1.2824111358 -1.8379228966
H -4.2220036153 1.2465492436 -0.0897824603
H -4.7924785812 2.7337663393 -0.8656785351
H -2.3488264627 2.8741182456 -0.3596341678
H -3.2637535373 4.0962478703 -2.3375340102
H -2.9546749413 2.6866942308 -3.3604080637
H -1.6013585350 3.5835458947 -2.6425667660
H -2.1180284377 0.5305634294 -2.3032865594
H -0.9902716836 1.5347831496 1.1781770142
H -0.8664765995 -0.0639714776 3.0356151671
H -2.4546101713 -3.1457388451 0.5109332040
H -2.5997822453 -1.5221783781 -1.3681840256
H 0.5019006852 -2.3228131014 3.0750032089
H 2.0231896094 2.1697176897 -1.6394752618
H 1.5445183117 3.6210228196 1.7830629672
H 1.9317117955 2.3296335875 3.8707678395
H 2.4759718328 -0.0943566808 3.7525038476
H 2.3583295861 0.0929506641 -0.5333064281
H 4.4648985718 -3.1832920374 0.7675209148
H 4.0870472263 -4.8047032650 -1.0879870612
H 1.9380098937 -4.7859402214 -2.3295357532
H 0.1689054553 -3.1547031294 -1.7010511833
H 0.5451100260 -1.5621353019 0.1442355255
