55
CONF153
C 0.5103893009 -6.4329332458 1.5425241528
C -0.7500608775 -5.6051830674 1.4497676865
O -0.3382729314 -4.2317663193 1.2347750695
C -1.3630144155 -3.3473059934 1.0876125625
O -2.5386498154 -3.6466617986 1.1029676920
N -0.8337633437 -2.0931082282 0.9199005245
C -1.5258510311 -0.9090157935 0.6410206397
C -0.7382631476 0.2273147705 0.4350599052
C -1.3118722468 1.4375793345 0.0760898785
C -2.7021141214 1.5658667621 0.0494479890
C -3.4902654498 0.4445428761 0.2993385066
C -2.9197919961 -0.7968900117 0.5606131048
S -3.4003920460 3.1673038088 -0.2719943339
C -2.1606774019 4.1519184615 0.5491005881
C -2.5246117724 5.3247098837 1.2073340511
C -1.5465671972 6.1114766558 1.8047956811
C -0.2137033437 5.7118198277 1.7765471087
C 0.1528421112 4.5302993193 1.1413328525
C -0.8170907094 3.7590351176 0.5070887411
N -0.4937091799 2.5666460003 -0.2079531263
C 0.4603602562 2.6002075929 -1.2356406019
O 1.2770830633 3.5012087628 -1.3170978732
C 0.3402947803 1.5593232504 -2.3356377473
C 1.6861850418 0.9827727650 -2.8346057641
N 2.2744190139 -0.1009597024 -2.0498757412
C 1.4115091131 -1.2833795687 -1.9962009451
C 2.0425172818 -2.3713542103 -1.1482562424
O 2.3055989086 -1.8747658994 0.1699614895
C 3.2739411199 -0.8218631576 0.0785097974
C 2.7470753285 0.3461890055 -0.7402962117
H 0.2476630672 -7.4818634268 1.7073040713
H 1.1375152328 -6.0984646623 2.3731318038
H 1.0912163744 -6.3633575798 0.6187446155
H -1.3438984045 -5.6551937031 2.3686886492
H -1.3890030780 -5.9176694243 0.6173132178
H 0.1797879368 -2.0334356493 0.9263926023
H 0.3370492906 0.1526597942 0.5313488133
H -4.5712953456 0.5389329183 0.2890316999
H -3.5442218755 -1.6616541699 0.7326762649
H -3.5693769154 5.6147240927 1.2480287085
H -1.8315950973 7.0294469658 2.3077835921
H 0.5475212434 6.3196858747 2.2535447503
H 1.1866248653 4.2135724417 1.1055808169
H -0.3805795802 0.7747953047 -2.1053627008
H -0.0871680546 2.1364189239 -3.1668188812
H 1.5320656345 0.6043487686 -3.8527410901
H 2.4085679074 1.8052983589 -2.8929040751
H 0.4092974375 -1.0738751690 -1.5822995031
H 1.2698390659 -1.6535505949 -3.0208125650
H 1.3591864974 -3.2187612586 -1.0348905553
H 2.9831730369 -2.7238987208 -1.6000252599
H 3.4921279453 -0.5036220957 1.1018471826
H 4.1944854778 -1.2218591549 -0.3754378379
H 3.5548596258 1.0743628355 -0.8928410538
H 1.9726140333 0.8699312488 -0.1535111868
