59
CONF102
C 5.5798358192 -2.5672253006 -1.7829916307
C 6.4937047588 -3.0271288758 -0.6109765469
C 5.5901542947 -3.0289551677 0.6359869433
C 4.5018082985 -1.9879620340 0.3349994346
C 4.2027086327 -2.2764373871 -1.1505120662
C 5.0273870834 -0.5642453800 0.5263165242
C 3.9856563817 0.5062192582 0.3224356233
O 4.2848245160 1.6431554362 -0.0155602480
N 2.6493305958 0.1669068933 0.5522696757
C 2.2298853278 -1.0826458341 1.0194112854
O 1.0479537708 -1.2913935150 1.2555099114
C 3.2855304809 -2.1335144925 1.2386260640
C 1.6219549291 1.2103813435 0.3682320818
C 1.4022550152 2.0133141232 1.6507563401
C 0.2989305992 3.0708575347 1.5114143166
C -1.1134520250 2.5427322518 1.7712239080
N -1.5259845335 1.4560077821 0.8761291171
C -1.8042584048 1.9439956531 -0.4779302849
C -2.1681301421 0.7823521403 -1.3988564868
N -3.3211004092 0.0585766393 -0.8632089158
C -3.0711071421 -0.4163195397 0.4980373104
C -2.7024492045 0.7567882686 1.4024533547
C -4.5881624691 0.2875081339 -1.3222489138
N -4.7188515429 0.9652612676 -2.4895517153
C -5.9590860763 1.1250999640 -2.9461747539
C -7.0831384245 0.6416609017 -2.2861487088
C -6.8384471704 -0.0308971699 -1.0943148707
N -5.6175505671 -0.2150831044 -0.5966906815
H 5.5014572677 -3.3272579114 -2.5649669004
H 5.9859736841 -1.6677405038 -2.2557696601
H 6.9312379622 -4.0129401989 -0.7898098677
H 7.3257698975 -2.3284340803 -0.4788091487
H 6.1304211474 -2.8144236422 1.5642126412
H 5.1053704583 -4.0067258963 0.7496485067
H 3.6711770096 -1.4582634814 -1.6489025041
H 3.5633626627 -3.1657465049 -1.2065875000
H 5.4049542062 -0.4441487369 1.5524016528
H 5.8550018983 -0.3277242967 -0.1476167927
H 2.8001084362 -3.1062016978 1.1167310561
H 3.5944227762 -2.0543901326 2.2918190079
H 0.6989704734 0.7130764748 0.0718432342
H 1.9600461179 1.8656844866 -0.4374104965
H 1.1471481898 1.3244759335 2.4660577364
H 2.3479327742 2.4985786662 1.9184860968
H 0.3662486605 3.5542855956 0.5283421002
H 0.4721644272 3.8665394317 2.2452971694
H -1.8324060213 3.3857585034 1.7307203956
H -1.1437202897 2.1481851595 2.7951006681
H -2.6336218441 2.6808620151 -0.4768981716
H -0.9151457546 2.4431009938 -0.8781446964
H -1.3238791167 0.0822390046 -1.4516069338
H -2.3901308660 1.1439964691 -2.4015700319
H -3.9510663591 -0.9327001914 0.8783309534
H -2.2311858964 -1.1221867391 0.4599349569
H -3.5774825859 1.4336067048 1.4896468257
H -2.4690420523 0.3780192695 2.4044525009
H -6.0572287831 1.6698060354 -3.8849540504
H -8.0843989507 0.7847561904 -2.6722637156
H -7.6612505055 -0.4385688842 -0.5074180787
