82
CONF133
C -2.8087030235 3.0934665333 -0.7787631334
C -2.0858856307 2.4238661454 0.3569663971
C -1.0558250280 3.0236031210 0.9680019708
C -2.6014902550 1.0909339052 0.8453899298
C -3.9107647191 1.2354255706 1.6472216993
C -4.3342957173 -0.2160785872 1.8473374152
C -4.0163205267 -0.9214116732 0.5032517858
C -2.9902087320 0.0243903362 -0.2163564732
C -1.8965631386 -0.7454106979 -0.9976281472
C -0.9781665964 0.1953190071 -1.7815837756
C 0.2274287011 -0.5603791809 -2.3224855242
C 1.1686744113 -1.0494556785 -1.1991353557
C 2.3783758235 -0.0192668317 -0.9993135081
C 1.9963787751 1.4760486429 -1.1354516708
C 3.1994622831 2.4129503319 -0.9525821004
C 3.8802043450 2.2602641544 0.4056777343
C 4.2258728782 0.7798562681 0.7230219777
C 3.0325094036 -0.1903361589 0.4027368227
C 1.9649326000 -0.1114708604 1.5304747224
C 0.5173166131 -0.4082899686 1.1314445913
C 0.3949153425 -1.5216903426 0.0917701652
C -1.1173563671 -1.8886717665 -0.2345133110
C -1.9277000769 -2.2534772193 1.0343666900
C -3.4267375490 -2.3206367938 0.7373731009
C -1.1295811314 -3.1630203723 -1.1269681045
C 1.0907192795 -2.7766556160 0.6631850335
C 5.4985174278 0.4225689541 -0.0762072340
C 4.6362184925 0.6432696802 2.2009995774
O 3.0963399585 2.9121555321 1.4324434645
C 3.3358882016 -0.4000193964 -2.1530236024
C -5.3290557794 -1.0239377001 -0.2840670058
O -5.1894399403 -1.5377717013 -1.6173559786
H -2.6618759176 2.5468455785 -1.7167886655
H -2.4504252007 4.1161877534 -0.9197801583
H -3.8897931117 3.1244570493 -0.6009190264
H -0.5324681277 2.5454167527 1.7930240099
H -0.7102950565 4.0078174638 0.6620871550
H -1.8604792986 0.6734949502 1.5339808533
H -3.7603509869 1.7825216300 2.5832656607
H -4.6578260336 1.7768090215 1.0537303391
H -3.7356630558 -0.6624226663 2.6502674884
H -5.3886293963 -0.3282931442 2.1275646406
H -3.5462697605 0.5815436309 -0.9869469486
H -2.4729546903 -1.2847208986 -1.7601694615
H -1.5476920790 0.6403597218 -2.6074318258
H -0.6456599561 1.0263690368 -1.1554046115
H 0.7786685404 0.0644040942 -3.0305851229
H -0.1337805659 -1.4102803141 -2.9118398088
H 1.6663413133 -1.9514087472 -1.5763676791
H 1.2270066048 1.7373855584 -0.3984805580
H 1.5554249732 1.6830471327 -2.1155603502
H 3.9352085748 2.2490832911 -1.7453142171
H 2.8730510006 3.4550649740 -1.0571648748
H 4.8277148974 2.8168549775 0.4019096493
H 3.4714437031 -1.1974144092 0.4219920376
H 2.2668055499 -0.7982136243 2.3284334403
H 1.9767304097 0.8786343714 1.9896026446
H 0.0504381921 0.4980097366 0.7431551576
H -0.0259209488 -0.6664798862 2.0467937103
H -1.5850589170 -3.2163492714 1.4273861741
H -1.7714724520 -1.5204360425 1.8322922380
H -3.6074768705 -2.9529405597 -0.1386150628
H -3.9600720495 -2.7877459941 1.5754377033
H -0.9434426178 -4.0608010016 -0.5305878225
H -0.3735845573 -3.1308586070 -1.9140536588
H -2.1004028788 -3.2918484077 -1.6132878473
H 0.5884884703 -3.1251606274 1.5718376114
H 2.1287869700 -2.5685773991 0.9247167241
H 1.1043498111 -3.5960364048 -0.0587051839
H 5.4571925863 0.7154820112 -1.1239667612
H 5.6830933988 -0.6559519053 -0.0343213911
H 6.3617615070 0.9294648572 0.3686886241
H 5.4920198881 1.2966135778 2.4054266019
H 4.9439862338 -0.3889691804 2.4071242983
H 3.8424828321 0.9133175002 2.8967182487
H 2.1626992225 2.8047435947 1.2128940162
H 4.0681214421 0.3675405164 -2.3960752380
H 2.7607750285 -0.5829800334 -3.0662980953
H 3.8778301587 -1.3210761124 -1.9123883048
H -6.0000651769 -1.7227524826 0.2307284319
H -5.8187932638 -0.0378334497 -0.3085898171
H -4.7656304738 -0.8580549331 -2.1556423371
