41
CONF58
C 0.5023871426 -5.8318323990 3.0643563754
C 1.6735367103 -5.5241279151 2.1541968312
O 2.4384564297 -4.3931013582 2.6466346709
C 1.9324957520 -3.1712966599 2.3315087300
O 0.9463191790 -2.9790552013 1.6413273386
N 2.6805983765 -2.1868774792 2.9014389111
C 2.3932537001 -0.7905771577 2.6240188801
C 2.8945311310 -0.3772433622 1.2365692201
O 2.5364458667 0.9699039573 0.9370320437
C 1.2551249008 1.2246122125 0.5163299570
C 0.9756624198 2.5703919081 0.2557646211
C -0.2810304931 2.9498565322 -0.1851596877
C -1.2633237411 1.9805624186 -0.3760614751
C -0.9944543822 0.6469535070 -0.1180783985
C 0.2657252518 0.2572087619 0.3360866868
O -2.5531873894 2.3400596630 -0.7447936061
C -2.7436117165 2.9417017768 -1.9686239302
C -1.8206657389 2.8694279689 -3.0106713393
C -2.1227285183 3.4795080656 -4.2252246307
C -3.3271211774 4.1511320668 -4.4076180034
C -4.2419126237 4.2086470091 -3.3578191169
C -3.9557658982 3.6100788819 -2.1382202291
H -0.2081851973 -5.0019373311 3.0690987663
H 0.8439768847 -6.0182612287 4.0864433423
H -0.0161605700 -6.7265732929 2.7052433642
H 1.3411639070 -5.3098999073 1.1344572460
H 2.3954642382 -6.3444272563 2.1371989272
H 3.5262319367 -2.4497759639 3.3791489891
H 2.8724727808 -0.1727310008 3.3893141748
H 1.3128260626 -0.6304523335 2.6927896078
H 3.9885432339 -0.3981662219 1.2101639013
H 2.5184279687 -1.0698955012 0.4731959587
H 1.7583417846 3.3050673866 0.4107224740
H -0.5070930207 3.9918584218 -0.3861885249
H -1.7764720544 -0.0905358513 -0.2625325861
H 0.4417484831 -0.7910793450 0.5504824171
H -0.8841180585 2.3411198683 -2.8742902866
H -1.4046433729 3.4210663030 -5.0372713509
H -3.5526373450 4.6235534435 -5.3574445680
H -5.1859249492 4.7287505257 -3.4866086680
H -4.6546968776 3.6463861939 -1.3097585347
