47
CONF50
C -5.9318280286 -3.0611512559 1.1032717064
O -6.4654810363 -1.7135462349 1.2443966032
P -5.6884747073 -0.4745206790 0.6004404546
S -5.0395572281 -0.6730355941 -1.2213972074
O -6.7015942250 0.7250990255 0.8946400414
C -7.8308179410 0.9640308422 0.0056115531
O -4.5591919382 -0.2033023309 1.7311101545
C -3.4435423677 0.6031330929 1.4744476129
C -2.2050817137 -0.0103874054 1.3566515447
C -1.0724335254 0.7716254367 1.1576429128
C -1.1928531950 2.1594540206 1.0574663889
C -2.4501600958 2.7611438668 1.1743496781
C -3.5806455447 1.9826582105 1.3939561884
S 0.2111608506 3.2482192400 0.8455368564
C 1.4512587404 2.1650160352 0.1475835526
C 2.6232646110 1.9172209303 0.8617209104
C 3.6257770518 1.1232981491 0.3107075784
C 3.4246421208 0.5667076569 -0.9457923519
C 2.2599119394 0.7998187775 -1.6695822164
C 1.2768322846 1.6143434056 -1.1253248191
O 4.3978661357 -0.2126135041 -1.5669031116
P 5.1227202418 -1.4783778676 -0.8565861613
S 3.9998922713 -2.6715926187 0.1780816210
O 6.3010624939 -0.7141982066 -0.0797296293
C 7.2126560750 -1.4775080957 0.7631707803
O 5.7869691186 -2.2062663779 -2.1099263535
C 6.6985418271 -1.4785397464 -2.9924927590
H -6.6313886159 -3.7087972176 1.6305903943
H -4.9408769430 -3.1227548506 1.5612721815
H -5.8824555810 -3.3337384389 0.0462344726
H -8.5007743767 0.1002975028 0.0086681253
H -8.3399610102 1.8376758654 0.4109617847
H -7.4719332157 1.1673893686 -1.0062731371
H -2.1284868262 -1.0902345696 1.4277489856
H -0.1022755305 0.2937040623 1.0782902197
H -2.5508896070 3.8390991039 1.0941474930
H -4.5581069889 2.4425659685 1.4910833274
H 2.7587987271 2.3431733416 1.8500154124
H 4.5436561401 0.9394392459 0.8575523513
H 2.1387000473 0.3543569064 -2.6509481630
H 0.3688614745 1.8124693569 -1.6853316130
H 7.7249144466 -2.2412711494 0.1714055690
H 7.9311886734 -0.7537200754 1.1459755148
H 6.6596843620 -1.9381678398 1.5855168488
H 7.0849658480 -2.2237723816 -3.6865004482
H 6.1505276882 -0.7036347385 -3.5330117104
H 7.5149559563 -1.0408080427 -2.4134031410
