54
CONF377
C 2.4446285408 2.7498883813 -1.5104565122
C 2.5127949274 1.2304326324 -1.5859328866
C 2.8230725256 0.5468690705 -0.2830098816
C 2.7896766129 -0.8316344648 -0.1605714751
C 2.9849374094 -1.4295974416 1.1033296996
N 3.3243556661 -0.6513418025 2.1494978695
C 3.3874370321 0.6580559254 1.9248934179
N 3.1310239719 1.3065306972 0.7912570253
N 2.8467079900 -2.7610252964 1.3000493747
C 2.7011583054 -3.3580433312 2.6244322187
C 1.4728766580 -2.8698029419 3.3954827922
O 0.2714106257 -3.0149167013 2.6180423720
C -0.0822113170 -1.9664446631 1.7868999405
C -0.5241706086 -2.2829587912 0.4949686637
C -0.9376297702 -1.2447168785 -0.3650333753
C -0.8724777923 0.0942755071 0.0587788056
C -0.4426560203 0.3673579884 1.3591559772
C -0.0628600082 -0.6441996340 2.2278227126
C -1.2915745536 1.2507579483 -0.8167469556
C -2.7972537545 1.4769362308 -0.7534474660
O -3.1307185029 2.5645338426 -1.6116321543
C -4.5319909644 2.8513983175 -1.5939897748
C -4.7959144771 4.0139195063 -2.5267866739
C -1.4092593388 -1.6152331653 -1.7465652099
C -0.5358923315 -3.7104942572 0.0226573379
Cl 2.4565683580 -1.8493468124 -1.5535181275
H 3.4022731680 3.1795371030 -1.2065227161
H 1.6879046383 3.0749213700 -0.7911104606
H 2.1813759161 3.1530213383 -2.4924626973
H 3.2647072005 0.9175306099 -2.3230315722
H 1.5618053070 0.8274355189 -1.9578504418
H 3.6729051912 1.2732629864 2.7790688623
H 2.4511150848 -3.2831418561 0.5328043296
H 3.5906538860 -3.1549689971 3.2323394711
H 2.6369413539 -4.4387232122 2.4713667896
H 1.6094181245 -1.8361559823 3.7189536798
H 1.3429220065 -3.4971678401 4.2824182158
H -0.4068118788 1.3991816107 1.6995152203
H 0.2518265706 -0.3995202717 3.2358659682
H -0.9962538798 1.0958265576 -1.8596519507
H -0.7883160970 2.1615596570 -0.4745756441
H -3.3379886363 0.5672254985 -1.0649691246
H -3.0971746560 1.7027985856 0.2837448446
H -4.8461663515 3.0960157925 -0.5662673520
H -5.0956435098 1.9591121865 -1.9118468759
H -5.8634192392 4.2533838998 -2.5319305130
H -4.2442777551 4.9017667990 -2.2033023178
H -4.4923555618 3.7664602946 -3.5484445369
H -1.8150074159 -0.7642476414 -2.2923321565
H -2.1855812878 -2.3862500578 -1.7003988847
H -0.5858046667 -2.0317524573 -2.3398389589
H -1.5606521959 -4.0766735828 -0.1148176930
H -0.0323203769 -3.8042991076 -0.9453584428
H -0.0381149111 -4.3641882644 0.7390571055
