15
CONF1
N -1.1131040856 1.3908778723 -1.0426739442
C -0.5307496019 0.8179944411 0.1598088140
C 1.0011742294 0.8135544156 0.0745886230
S 1.6944772268 -0.1072169973 -1.3678753417
S 1.6873588719 -2.1024467664 -0.7548858500
C -1.0625523980 -0.5752183633 0.4990658101
O -0.7457400557 -0.9291271560 1.7601771886
O -1.7061475070 -1.2756106132 -0.2526374390
H -2.1226449165 1.4275180485 -0.9416320115
H -0.9372664090 0.7636465900 -1.8235866193
H -0.7794811184 1.4586651904 1.0176147394
H 1.4585415532 0.4293402713 0.9888265438
H 1.3409393485 1.8431826183 -0.0842304550
H 2.8978682213 -2.1282067557 -0.1561909030
H -1.0826736606 -1.8269528061 1.9236311358
