39
CONF1
C -0.7725657896 -3.2389447571 1.0452398270
O -1.8529009217 -2.2961580483 0.9971704320
C -1.6266791758 -1.1212505520 0.3487897537
C -0.4202092527 -0.7747085341 -0.2633404094
C -0.2985554780 0.4574447992 -0.9059173291
C -1.3679695302 1.3521450559 -0.9306420843
C -2.5776068014 1.0069941004 -0.3166274690
C -2.7097048087 -0.2282659636 0.3317425092
O -3.8799307995 -0.5471644157 0.9801075862
C -4.8186011935 -1.2423719631 0.1327367464
O -3.6800747403 1.8040118769 -0.2833669063
C -3.5879498471 3.0840535855 -0.9244989835
C 1.0070398864 0.8225064738 -1.5929707910
C 2.2320900319 0.5097610541 -0.7820825744
C 3.1774232356 -0.4119970910 -1.1834812616
N 4.2914690404 -0.7180065397 -0.4970295067
C 4.4444698668 -0.0472530272 0.6597796924
N 3.6027678594 0.8684439937 1.1700727260
C 2.5010452383 1.1455791960 0.4571552903
N 1.6686133659 2.1029896807 0.9478937526
N 5.5407357362 -0.3619685988 1.4193843360
H -0.4793254001 -3.5522147166 0.0366787827
H 0.0932896390 -2.8177794041 1.5690407934
H -1.1562792973 -4.0958644128 1.5994108751
H 0.4275231265 -1.4489809962 -0.2456000568
H -1.2514789091 2.3058540521 -1.4316875938
H -5.1000503023 -0.6168828466 -0.7225346049
H -4.3883779178 -2.1855839474 -0.2236468041
H -5.6985340975 -1.4465998537 0.7458326507
H -4.5617361087 3.5532650672 -0.7822610971
H -2.8096944326 3.7005585134 -0.4602357130
H -3.3843660825 2.9737276426 -1.9957753270
H 0.9820936464 1.8895808362 -1.8493058532
H 1.0747537257 0.2774986607 -2.5429812571
H 3.0341801988 -0.9414151201 -2.1263768819
H 1.8074409303 2.3847093127 1.9066733538
H 0.7191421260 2.1387453705 0.6083980405
H 5.8098955679 0.3071845691 2.1236751629
H 6.2973886255 -0.8258981215 0.9414425156
