39
CONF5
C -3.7063319408 0.1245140418 2.0640019859
C -4.2673273308 -1.0352100225 1.5358841620
C -3.6428330712 -1.6722409199 0.4677353298
C -2.4641302505 -1.1655849690 -0.0775936958
C -1.9327440042 -0.0108792291 0.4675561693
C -2.5310849291 0.6437392673 1.5352415093
O -0.7038157397 0.4339103545 -0.0263224130
C -0.6576988986 1.5789938160 -0.7832496426
C 0.6090615971 2.0631532200 -1.1745022822
C 0.5919770916 3.2214876463 -1.9524442916
C -0.6064631853 3.8284300550 -2.3006175160
C -1.7841790119 3.2479797565 -1.8543661643
N -1.8074072389 2.1381657936 -1.1065472175
C 1.9678864126 1.4932993936 -0.8678135234
O 2.9789110835 2.0574286632 -1.2770568961
N 1.9925049155 0.3419320210 -0.1313235620
C 3.1100704467 -0.3967492104 0.2682401126
C 2.8634354632 -1.5781902491 0.9811697310
C 3.8586546037 -2.4131275129 1.4425576287
C 5.1661589627 -2.0392713265 1.1719703008
C 5.4768122039 -0.8861258079 0.4752779274
C 4.4481112841 -0.0639872386 0.0238460822
F 6.1648069986 -2.8388184183 1.6098820874
F 1.5716395629 -1.9110932840 1.2281477405
C -4.2010408445 -2.9549437117 -0.0778552260
F -3.6150783927 -4.0384156923 0.4988970286
F -5.5304955175 -3.0691201706 0.1388860349
F -3.9989373590 -3.0708169726 -1.4116154016
H -4.1883588826 0.6256970638 2.8962577934
H -5.1829887149 -1.4384301108 1.9521553362
H -1.9678949279 -1.6506733399 -0.9102664264
H -2.0816893295 1.5455920316 1.9358593042
H 1.5452803703 3.6265846555 -2.2728863642
H -0.6263754310 4.7275368487 -2.9051449639
H -2.7525391288 3.6777668547 -2.1011115282
H 1.0953185459 -0.0340067439 0.1481373037
H 3.6213628635 -3.3175065515 1.9894027464
H 6.5127206734 -0.6303272933 0.2860511503
H 4.6747023469 0.8393072917 -0.5221792360
