36
CONF6
C -0.1106280863 2.6515456740 0.9704412051
C -1.1798944333 2.6226830111 -0.0976779756
S -1.4470100180 3.9373916471 -1.0929426883
N -1.8256757700 1.4269104428 -0.1928128107
C -1.5805210021 0.3486789093 0.7184684439
C -0.2760075862 -0.1076442781 0.9741934189
C -0.0942037513 -1.2288019938 1.7925874181
C -1.1918427605 -1.8536764099 2.3565157121
C -2.4858277559 -1.3976243886 2.1234789940
C -2.6718964675 -0.2992169587 1.2997977193
Cl -0.9468081096 -3.2457105193 3.3941223303
C 0.9163536374 0.6013534630 0.4583141749
N 1.0273066247 1.8818997823 0.4571891327
C 2.0283046878 -0.2246437711 -0.0639855374
C 1.7536632414 -1.3480887516 -0.8581158658
C 2.7751797358 -2.1147412890 -1.4025769898
C 4.1039197410 -1.7845806844 -1.1432410858
C 4.4086273458 -0.6885588514 -0.3418214878
C 3.3728721023 0.0697066352 0.1761975160
F 3.6994786934 1.1078434580 0.9774801256
C -2.7765173384 1.1732110278 -1.2729421269
C -2.1343713398 0.3515456061 -2.3792304698
F -2.9924462975 0.2258417225 -3.4152609001
F -0.9992311903 0.9142821972 -2.8487202907
F -1.8099500417 -0.9002246270 -1.9705919581
H -0.5067366910 2.2375421859 1.9114698896
H 0.2011055331 3.6815742476 1.1340538868
H 0.9087336482 -1.5895267131 1.9904703553
H -3.3370985394 -1.8864560606 2.5826377930
H -3.6794102963 0.0600185446 1.1247780290
H 0.7179211704 -1.6038957893 -1.0570754194
H 2.5351421394 -2.9696373285 -2.0251438404
H 4.9086038271 -2.3824838641 -1.5582590420
H 5.4332413490 -0.4194856402 -0.1088601336
H -3.0953210740 2.1266914006 -1.6994452749
H -3.6490561235 0.6262784664 -0.9134918401
