94
CONF105
C 9.4637198804 -1.0202052886 -4.6914771200
C 8.3333500383 -1.5127319483 -3.8084889681
C 7.2291589441 -2.2192228510 -4.6034201460
C 6.1063294884 -2.6785213635 -3.7316954619
C 4.9605348646 -1.9870507743 -3.5769611612
C 3.9037067472 -2.3450811599 -2.6743846173
C 2.8234931846 -1.5561423947 -2.4339294146
C 1.7709160159 -1.8940061530 -1.5272929442
C 0.7305515589 -1.0728004297 -1.2291167440
C -0.3425836730 -1.4352166987 -0.3460247406
C -1.3464909102 -0.6077491500 -0.0036917436
C -2.4556825283 -0.9877343836 0.9192858097
C -2.3190946128 -0.3998050029 2.3309950797
C -2.1879773176 1.1171165231 2.3593051110
C -2.7072164689 1.7382924091 3.6730814334
C -2.4715136412 3.2478575442 3.6264899361
C -0.9953149502 3.5261704161 3.3780533026
C -0.4957896802 2.8198712512 2.1159488447
O -0.7967457353 1.4179945600 2.2062624648
C 1.0262693333 2.9017515350 1.9886088395
C 1.6111364516 2.1592945802 0.7873239503
C 3.1363982792 2.2439378772 0.7974746323
C 3.7671271532 1.6314824934 -0.4215658319
C 5.1128523540 2.0652234538 -0.8523275422
O 3.9190064170 2.4830498467 -1.5686559557
C 5.9955418568 1.1555845157 -1.5838140755
C 7.3181267109 1.0927123625 -1.3774714158
C 8.1943874085 0.1048704902 -2.0294440157
O 9.2708319613 -0.2403601653 -1.5685335529
O 7.6691554738 -0.3755981796 -3.1700627283
O 1.0688912094 2.6577175879 -0.4603541419
O -1.1531492093 3.4078601257 1.0090051131
O -2.9058477858 3.7732527029 4.8885603207
C -4.1819608328 1.4652986171 3.8222226006
O -5.0250668681 1.7944876674 3.0110727461
O -4.4746634196 0.7918504233 4.9530273820
O -3.6704229815 -0.4928546577 0.2836471081
C -4.8687783410 -1.0432942655 0.7407989753
C -6.0089391470 -0.2247871301 0.1328671451
C -7.3405348419 -0.8783752595 0.5138032066
C -7.3296938177 -2.3675903457 0.1560481461
C -6.1198460553 -3.0618869185 0.7816583384
O -4.9241445897 -2.4052095113 0.3225483000
C -6.0093473737 -4.5207178677 0.3944775090
O -8.5135664860 -2.9970673243 0.6506197894
N -8.5302773841 -0.2608207769 -0.0813524784
O -5.9213027590 -0.1781230655 -1.2908023562
H 9.9409677893 -1.8734877725 -5.1827152475
H 10.2167837758 -0.4936462841 -4.1008765865
H 9.0767152886 -0.3465983380 -5.4625091697
H 8.7133448882 -2.1640828975 -3.0140540203
H 7.6967875084 -3.0666956391 -5.1185941682
H 6.8599435468 -1.5241491243 -5.3669276577
H 6.2645093404 -3.5842801004 -3.1456542141
H 4.8230799137 -1.0707140325 -4.1533547942
H 3.9961982955 -3.2915109029 -2.1406533013
H 2.7473586740 -0.6000773020 -2.9544886886
H 1.8176924069 -2.8745994816 -1.0519644230
H 0.6905221409 -0.0825958691 -1.6843121247
H -0.3273465977 -2.4472774296 0.0611012439
H -1.3696499561 0.4102189363 -0.3908747086
H -2.5130302781 -2.0800062991 0.9998560908
H -3.1875633124 -0.7141479696 2.9207225056
H -1.4431748835 -0.8440167647 2.8167061405
H -2.7559791168 1.5586446103 1.5294234447
H -2.1595858130 1.3106273614 4.5205281925
H -3.0804210719 3.6693842738 2.8145549169
H -0.4201186273 3.1600379025 4.2356189270
H -0.8253765444 4.6035260288 3.2787031163
H 1.3061067086 3.9613141606 1.9347093669
H 1.4704869397 2.4893139092 2.9012085631
H 1.3021642946 1.1085094473 0.8137707861
H 3.5065409570 1.7202659844 1.6877918735
H 3.4523499848 3.2925439777 0.8769700384
H 3.4595297049 0.6125286890 -0.6682694962
H 5.5895555647 2.8573536345 -0.2738566748
H 5.5162586491 0.4912862481 -2.2995841628
H 7.8044597962 1.7217560777 -0.6367162458
H 1.4943473858 3.5056224904 -0.6542075398
H -0.6310402327 3.1625441195 0.2217398184
H -2.8473965017 4.7362938518 4.8441105898
H -5.4370121955 0.6479131024 4.9784797140
H -4.9523901110 -1.0038393839 1.8433461994
H -5.9624819899 0.7901755767 0.5579066168
H -7.4356148212 -0.8075048868 1.6072174707
H -7.2658504932 -2.4798171761 -0.9391739211
H -6.1904909149 -2.9622875390 1.8793727374
H -6.8914813596 -5.0667957070 0.7365883568
H -5.9363095844 -4.6171180280 -0.6937463172
H -5.1214245309 -4.9680749053 0.8498820026
H -9.2258274822 -2.3604549325 0.4796835339
H -8.6781692061 0.6608592031 0.3169230156
H -8.3668473801 -0.1214644241 -1.0746746097
H -5.0366546770 0.1417986979 -1.5120263144
