37
CONF8
C -1.8276813725 -0.8857451188 -1.1216193070
Si -0.5131669940 -0.0364980819 -0.0973499349
C -0.8251218617 -0.4888140926 1.7381687578
N -1.1057645918 -1.9097809861 1.9085582532
C -2.2868278738 -2.5112515827 2.1407068680
N -2.1411552026 -3.8352460859 2.1347424109
C -0.8142615818 -3.9857621535 1.8807789483
N -0.1436634745 -2.8467958614 1.7290141451
C 1.2089258097 -0.5803417364 -0.5991107204
C 2.3250932651 -0.2102419963 0.1681081452
C 3.6131652686 -0.6026597778 -0.1820434886
C 3.7687776901 -1.3790389619 -1.3189768811
F 5.0212606936 -1.7686255411 -1.6707646221
C 2.7052782038 -1.7741911472 -2.1110265874
C 1.4255933880 -1.3668106334 -1.7390062007
C -0.6546630753 1.8351900957 -0.2111486652
C -1.8350422658 2.4754233044 0.2018653721
C -1.9856133882 3.8560033010 0.1123988124
C -0.9301977155 4.5928843470 -0.3995947593
F -1.0647440169 5.9412747630 -0.4895566704
C 0.2534773895 4.0153811402 -0.8239234406
C 0.3790727305 2.6314010760 -0.7246409205
H -2.8230412440 -0.5802102688 -0.7805151054
H -1.7559560716 -1.9755602570 -1.0319275306
H -1.7358852418 -0.6197090528 -2.1796849583
H 0.0277565570 -0.2164539632 2.3696284624
H -1.6981348259 0.0596342908 2.1072064623
H -3.2018721304 -1.9585573963 2.3094098500
H -0.3228970525 -4.9480902171 1.8084054689
H 2.1977930116 0.3989289781 1.0597981395
H 4.4781381500 -0.3184784229 0.4076974929
H 2.8772207409 -2.3833795158 -2.9919836276
H 0.5870725058 -1.6765211149 -2.3561402452
H -2.6635214469 1.8944916597 0.5999329846
H -2.8954396644 4.3537913664 0.4306438843
H 1.0514437248 4.6341338867 -1.2205040379
H 1.3045831642 2.1702249683 -1.0575469611
