41
CONF144
C 2.2824391060 -5.7824820094 5.5186363268
C 2.4252019495 -5.3038468429 4.0926384176
O 2.5331053634 -3.8587414965 4.1380468633
C 2.6750906293 -3.2645702825 2.9213270315
O 2.7033877956 -3.8549039318 1.8592354038
N 2.7959786313 -1.9137082619 3.0699616413
C 2.8511079433 -1.0410808101 1.9128802393
C 1.4670372582 -0.8029449267 1.3194901732
O 1.6485829611 0.0915321076 0.2245014519
C 0.5452373473 0.4494828353 -0.4977251286
C -0.7500932286 0.0052499139 -0.2341200105
C -1.8048456179 0.4435918034 -1.0350366576
C -1.5641542061 1.3057822421 -2.0916310034
C -0.2689350055 1.7441860299 -2.3653033174
C 0.7795615254 1.3213045447 -1.5669052310
O -2.6260011600 1.6470570517 -2.9163025455
C -2.9014597775 2.9813552037 -3.1224441007
C -3.6263095973 3.2876645950 -4.2728316814
C -3.9859052103 4.6055760326 -4.5233955511
C -3.6227493493 5.6193671361 -3.6393298691
C -2.9008668309 5.2989241341 -2.4939376535
C -2.5368773724 3.9828471013 -2.2241032842
H 2.1962152293 -6.8728772285 5.5314117314
H 1.3879934439 -5.3606055526 5.9850582312
H 3.1535278439 -5.4984585693 6.1152770881
H 1.5594633778 -5.5754097462 3.4793434501
H 3.3203725644 -5.7101300744 3.6104113434
H 2.6548020227 -1.5262769051 3.9879409889
H 3.4942190426 -1.4964028057 1.1540549701
H 3.2963266272 -0.0861086164 2.2091216053
H 1.0416705399 -1.7572320228 0.9791697490
H 0.7973206637 -0.3582655823 2.0718726972
H -0.9562290535 -0.6764611944 0.5814695567
H -2.8188356511 0.1088825737 -0.8452571485
H -0.0923010259 2.4132485958 -3.2009830155
H 1.7959074452 1.6453419387 -1.7624218585
H -3.8983550189 2.4862100075 -4.9509332650
H -4.5496994170 4.8417380075 -5.4203306021
H -3.9014339386 6.6478677726 -3.8409698534
H -2.6190118839 6.0787284049 -1.7933156045
H -1.9804849715 3.7345689174 -1.3274130746
