70
CONF116
C -2.7921063485 1.0457660698 -0.0210802000
C -4.1354785187 1.0409295242 0.7464288710
C -4.4169960272 -0.3387746184 1.2473711831
C -5.5554678907 -1.0439070376 1.5549353141
N -5.2027960414 -2.3263610417 1.9649946574
C -3.8346817444 -2.4657543826 1.9150530667
C -2.9588673866 -3.5193258190 2.1909900161
C -1.6023350513 -3.2718089769 1.9925637117
C -1.1074163580 -2.0279864045 1.5369669935
C -1.9774996081 -0.9755187689 1.2734036627
C -3.3337449478 -1.2259386542 1.4691077029
C -1.6331964073 0.4269983263 0.8169416843
C -0.3153079319 0.4721021523 0.0483316998
C -0.0100036842 1.9009439038 -0.4162113285
C -1.1896519849 2.4177133624 -1.2303079191
N -2.4045001261 2.4184140788 -0.4023775275
C -3.4675827024 3.2003106633 -1.0728198435
C -3.9729576815 2.6250146283 -2.3689780024
C -3.8368799347 3.2230666284 -3.5512083413
C 1.2693545977 1.9401316764 -1.2378399891
O 1.2636989019 2.2819075080 -2.4200383737
N 2.4385956744 1.4741752605 -0.6611277757
C 3.5880240258 1.2280128467 -1.5628004277
C 3.3855802796 0.0630112728 -2.5368128587
C 2.9405274982 -1.2497600854 -1.9007939022
N 3.8047798991 -1.7150095319 -0.8042643344
C 3.2084979455 -2.8952544718 -0.1683573682
C 5.1668762250 -2.0128186692 -1.2570229063
C 2.6036868229 1.3610730006 0.7646755881
O 2.1127153722 2.1925679039 1.5315554772
N 3.3490341295 0.3148095433 1.1488098661
C 3.6096480689 0.0597922251 2.5614830340
C 2.4621076779 -0.6864330096 3.2392525330
H -2.9112299904 0.4040039716 -0.9184711425
H -4.0593379309 1.7580032451 1.5770520753
H -4.9493322020 1.3818017953 0.1006103955
H -6.5970985143 -0.7553710054 1.5195418423
H -5.8577476083 -3.0390936771 2.2430174693
H -3.3085863739 -4.4864909986 2.5378580125
H -0.8924216976 -4.0691848226 2.1924820255
H -0.0360597316 -1.9159890681 1.4021918659
H -1.5252823417 1.0615141129 1.7121817929
H 0.4891519021 0.0870972725 0.6816657775
H -0.3834989518 -0.1867265296 -0.8292632585
H 0.1143698167 2.5349202742 0.4656336082
H -0.9964736303 3.4437831316 -1.5605793283
H -1.3100539003 1.8002093168 -2.1382791012
H -4.3016164197 3.3256764821 -0.3735794138
H -3.0599288900 4.2008963520 -1.2596067915
H -4.4740893405 1.6582069685 -2.3163113967
H -3.3383911722 4.1868824962 -3.6376474290
H -4.2191528050 2.7770916471 -4.4651547480
H 4.4625703981 1.0582073769 -0.9321249263
H 3.7698917320 2.1422259916 -2.1373106322
H 2.6301566790 0.3361391646 -3.2791512923
H 4.3252369488 -0.0669162628 -3.0857700187
H 2.8630762721 -2.0194928885 -2.6915366167
H 1.9339149883 -1.1215094672 -1.4819886006
H 3.8281098053 -3.2115420358 0.6770345891
H 3.1139253144 -3.7428240728 -0.8699406588
H 2.2096550912 -2.6448951383 0.2069323874
H 5.6530735850 -1.1089914854 -1.6337128850
H 5.7534053806 -2.3868861396 -0.4124761157
H 5.1775438114 -2.7759946820 -2.0556574675
H 3.5950462535 -0.4238336101 0.4543770674
H 4.5318793488 -0.5278426741 2.6220342549
H 3.7887468952 1.0163753086 3.0626167423
H 1.5379779494 -0.1024489525 3.1860182672
H 2.6977571460 -0.8669168361 4.2928452694
H 2.2891539581 -1.6521739821 2.7536451478
