31
CONF4
C -1.6521831785 0.1497557328 0.5997298283
C -0.3753196168 -0.5422650943 -0.0025098229
C 0.9216467214 0.3412852807 0.0070786187
C 2.1478937380 -0.3266948526 -0.7229516774
C 3.5123918814 0.3309483147 -0.3450747502
F 3.3928726287 1.6719757021 -0.2984395300
F 3.9153876070 -0.1197199498 0.8577784629
S 4.8969610703 -0.0839104399 -1.6179437062
O 4.8290508279 -1.5318554889 -1.8201575432
O 4.7357880828 0.8713330357 -2.7135234019
N 6.3093270439 0.2626802477 -0.8378354057
F 1.9648633478 -0.1970671717 -2.0582213728
F 2.2132352595 -1.6384068624 -0.4155383846
F 0.6783927355 1.5161425391 -0.6100119479
F 1.2567274404 0.5783738058 1.2977780393
F -0.1323561504 -1.6520979914 0.7280758986
F -0.6385573098 -0.8936145050 -1.2839667034
C -2.9773479241 -0.6488646830 0.3078948026
C -4.1519062486 -0.2518675816 1.2674795071
C -5.5655642248 -0.6800348029 0.7512667954
F -5.5608393355 -1.9712315563 0.3923054437
F -5.9382264651 0.0655846533 -0.2940775227
F -6.4545929576 -0.5074252131 1.7381459370
F -3.9544685792 -0.8447191810 2.4641359678
F -4.1677756237 1.0905601472 1.4341883560
F -2.7539732314 -1.9743785730 0.4418438962
F -3.3511791486 -0.3970388737 -0.9672671450
F -1.4819238299 0.2499348893 1.9384500092
F -1.7993725910 1.3863138407 0.0816979817
H 6.4268741911 1.2527797175 -0.6313530504
H 6.4945072331 -0.3384448227 -0.0378648228
