47
CONF28
C -4.3683800319 -2.4427631198 3.1332071019
O -4.7286965096 -1.6273237322 1.9819213782
P -4.5709243436 -2.2141331838 0.5041068907
S -2.9154816667 -3.1322264490 0.0720124431
O -5.9349524804 -3.0302919319 0.3398417292
C -6.1681287405 -3.8280328011 -0.8547332911
O -4.9015498836 -0.8942295709 -0.3814855157
C -3.8953872525 -0.0109129034 -0.7794236093
C -3.5809373920 0.0513775716 -2.1280287504
C -2.6029099548 0.9462424300 -2.5527703656
C -1.9655930597 1.7740329061 -1.6278319025
C -2.3114395349 1.7119918400 -0.2747025059
C -3.2732334426 0.8086063662 0.1567495027
S -0.7631639194 2.9613596979 -2.2135337641
C 0.6870246862 2.5641564510 -1.2436770977
C 0.9562153973 1.2708073637 -0.7892998426
C 2.1233740748 1.0112088712 -0.0802553671
C 3.0216377897 2.0459526671 0.1469395261
C 2.7755446163 3.3345246232 -0.3049807886
C 1.5969445917 3.5957513462 -0.9945362358
O 4.1790176158 1.8130348904 0.9014913938
P 5.5020424346 1.1613886947 0.2295194306
S 6.1326432618 1.9258315838 -1.4347668195
O 5.0573024646 -0.3823559087 0.1985677517
C 5.9273196412 -1.3685584621 -0.4244735960
O 6.5637160596 1.3207475520 1.4105109373
C 6.2822668943 0.7729651889 2.7350762275
H -4.5410751899 -1.8101345507 4.0031800515
H -3.3154504501 -2.7288457436 3.0727024645
H -5.0046493904 -3.3305310865 3.1791147808
H -5.3976873400 -4.5975850826 -0.9467279757
H -7.1471531679 -4.2849624604 -0.7144088095
H -6.1745785934 -3.1856748778 -1.7396534475
H -4.0821261533 -0.6057727538 -2.8302811679
H -2.3292163684 0.9897213907 -3.6015219413
H -1.8262539671 2.3661554410 0.4421815065
H -3.5504926963 0.7490656727 1.2035514770
H 0.2580374956 0.4633177579 -0.9810492357
H 2.3378904213 0.0137513758 0.2864645996
H 3.4915983653 4.1239193487 -0.1046799794
H 1.3865040625 4.6046057593 -1.3350670918
H 6.8925075753 -1.3986286598 0.0891778676
H 5.4133130387 -2.3231262920 -0.3152102991
H 6.0662476862 -1.1288807016 -1.4816677277
H 6.0333956747 -0.2884997747 2.6605761718
H 7.2010596079 0.9055498410 3.3052327402
H 5.4638569621 1.3274036271 3.1996871783
