40
CONF25
C 5.2577342794 0.1478825482 2.3790569121
C 4.2146808654 -0.3679730732 1.4177200357
O 3.2353081094 0.7010108619 1.2283853370
P 2.0639111836 0.5330856024 0.1561159455
S 2.5487416153 -0.0044702137 -1.6386369321
O 1.3265301899 1.9215866920 0.3900919048
C 0.7032010023 2.6827947177 -0.6933552202
C 1.5765208589 3.8641389600 -1.0428745808
O 1.1599557638 -0.5803292315 0.9941993385
C -0.0755535298 -0.9818757149 0.5823316148
C -0.6081064203 -2.1269445060 1.1630088850
C -1.8809261943 -2.4885832833 0.7389179782
N -2.5430538477 -1.7688317594 -0.1857943971
C -1.9321524645 -0.6918813892 -0.6805207681
N -0.7102014507 -0.2575085701 -0.3254071498
C -2.6777965832 0.1299712600 -1.7044243410
C -3.1531737978 -0.7348745281 -2.8756636064
C -3.8561360702 0.8494401425 -1.0329279237
C -2.5801805471 -3.6954938894 1.2805540248
H 6.0084769355 -0.6300810836 2.5474216886
H 4.8068406829 0.4100639075 3.3398131812
H 5.7569666532 1.0299054261 1.9694414270
H 3.6950215067 -1.2464194821 1.8161920554
H 4.6473413562 -0.6181880671 0.4431849822
H 0.5443621964 2.0224972971 -1.5495218941
H -0.2686408581 2.9871247668 -0.2967122637
H 1.7507424483 4.4948406879 -0.1668512882
H 1.0799676384 4.4652435081 -1.8115291258
H 2.5398021815 3.5267646613 -1.4360485634
H -0.0542092081 -2.6949812864 1.9000765042
H -1.9708700653 0.8802369961 -2.0746073014
H -2.3144871564 -1.2532637403 -3.3505114312
H -3.6398670419 -0.1067756518 -3.6284330564
H -3.8715046491 -1.4843533770 -2.5321306507
H -3.5163465541 1.4820790566 -0.2066105907
H -4.3734430448 1.4823326276 -1.7609332483
H -4.5697675870 0.1195053966 -0.6387243537
H -1.9704916520 -4.2168018784 2.0206937416
H -3.5288098370 -3.3986215686 1.7389171770
H -2.8203881087 -4.3822528115 0.4628009307
