35
CONF41
C -0.7419293127 -1.0461660853 2.9987847816
C -1.3270523057 -1.3156443336 1.6477307467
C -2.2929848333 -2.2414062226 1.3830444038
S -2.7587443063 -2.2336257010 -0.2919518242
C -1.6396764954 -0.9579329580 -0.6705507251
C -0.9557148990 -0.5900549804 0.4627492848
N 0.0367604146 0.4321135890 0.4901921497
C 1.4888249676 0.1025484932 0.3618466585
C 1.7223652352 -1.3991876377 0.2616460219
C 2.1192381764 0.8383374105 -0.8177457331
O 1.6693214332 0.2625113327 -2.0381712969
C 2.1621724690 0.9727981585 -3.1658774968
C -0.2850316793 1.6930420798 0.9217809280
O 0.5529183522 2.5452396584 1.1749694948
C -1.7955206339 1.9457911078 1.0153753110
Cl -2.1529785665 3.6088672442 1.6042616214
C -1.5403954488 -0.3921146949 -2.0443563178
H -0.9408448606 -0.0170266416 3.3209461769
H 0.3459147053 -1.1718030616 3.0012000801
H -1.1656249325 -1.7213266967 3.7451591382
H -2.7635822706 -2.9287226217 2.0732314010
H 1.9801158613 0.4934105667 1.2624664348
H 1.3632380155 -1.9281491681 1.1466026225
H 1.2354677327 -1.8220396278 -0.6193247946
H 2.7986108894 -1.5731545915 0.1726697691
H 1.8662021998 1.9062541894 -0.7795391059
H 3.2159689123 0.7439059687 -0.7348777339
H 1.8279535945 2.0213460866 -3.1542901738
H 1.7690226539 0.4785485169 -4.0575333349
H 3.2621999675 0.9550634587 -3.1995200545
H -2.2759542314 1.2420864202 1.6985969107
H -2.2575930200 1.8337484080 0.0310031369
H -2.4908695376 0.0512275978 -2.3609839883
H -0.7610853907 0.3721545801 -2.0631154182
H -1.2707128457 -1.1606395322 -2.7764185554
