65
CONF421
C -3.7510227333 3.7068246769 -0.7137770621
C -2.5323892098 3.7480543040 -1.6327549066
C -1.9572451813 2.3568776652 -1.9227897187
C -0.7653940604 2.4238774804 -2.8897146942
C -1.4846558191 1.7074123881 -0.6392878580
O -0.7481675837 2.2433375020 0.1677742093
O -1.9409250569 0.4452941101 -0.5184801888
C -1.5026842131 -0.3167559805 0.6525521249
C -2.4470571356 -0.0560317785 1.8132010922
C -1.9606302946 -0.7979626831 3.0670413991
C -1.5410808188 -2.1968979419 2.7269820617
C -1.3279035258 -2.6551509957 1.4785681017
C -1.5076728725 -1.7823655923 0.2488079679
C -0.4457819547 -2.1366732950 -0.8170795024
C -0.6441508670 -3.6137492243 -1.2159861181
C -0.6178467192 -4.4894313434 0.0066789053
C -0.9144128191 -4.0279646625 1.2332226527
C 0.3360710879 -4.0958701172 -2.2888027280
C 0.9790622981 -1.8042960828 -0.3187540990
C 1.5383562015 -0.5375303495 -0.9699828233
C 2.7792600923 0.0107832201 -0.2968413304
C 3.3811451108 1.2010015904 -1.0369654664
C 4.2631317619 2.0782858090 -0.1290851044
C 4.5920377957 1.3397255939 1.1661616081
C 3.3025354744 0.9707600358 1.8510808013
O 3.0428923420 1.1819990727 3.0177670241
O 2.3684705010 0.4025601597 1.0602844080
O 3.5759791136 3.2710637226 0.2877179823
C -0.8234827114 -0.0485940234 3.7854288238
H -4.5474129726 3.0927018906 -1.1480628414
H -3.4954678900 3.2837069463 0.2644358421
H -4.1514260313 4.7110262168 -0.5462171796
H -2.8015876598 4.2053423485 -2.5922564452
H -1.7438593575 4.3692464964 -1.1917047221
H -2.7391661624 1.7242350123 -2.3567815585
H -0.3673863025 1.4263202877 -3.1013430829
H -1.0812329842 2.8765312746 -3.8342162881
H 0.0365212551 3.0342050091 -2.4620079212
H -0.4912416308 0.0115418658 0.9072654930
H -2.5095032847 1.0192843044 2.0100483088
H -3.4471582412 -0.4092491875 1.5331833425
H -2.8018337273 -0.8585833931 3.7720166820
H -1.3846155989 -2.8771611635 3.5643378268
H -2.4965896339 -2.0060124176 -0.1819648848
H -0.6528628814 -1.5310795346 -1.7092630902
H -1.6521037367 -3.6814981507 -1.6578664615
H -0.3385452992 -5.5336015212 -0.1240438593
H -0.8566010382 -4.6898779916 2.0953871311
H 1.3606480680 -4.1548877699 -1.9092937610
H 0.0554128563 -5.0954480024 -2.6362528773
H 0.3275397325 -3.4199302003 -3.1504221503
H 0.9682884932 -1.6805800309 0.7703982367
H 1.6653152499 -2.6336313828 -0.5164916816
H 1.7848631223 -0.7367053096 -2.0208408227
H 0.7886596028 0.2626597266 -0.9757622189
H 3.5290654021 -0.7829650685 -0.1785769762
H 2.5760821496 1.8169425844 -1.4542946007
H 3.9660546097 0.8112415339 -1.8763323643
H 5.1947416588 2.3487487418 -0.6421316875
H 5.1841130741 1.9604404136 1.8399854617
H 5.1613747464 0.4308848951 0.9367876993
H 3.3245507861 3.7623218394 -0.5044695124
H 0.0412186278 0.0797029694 3.1261615533
H -0.4904678600 -0.6052153109 4.6672506290
H -1.1618262341 0.9407578278 4.1103710345
