60
CONF31
C 0.5147356115 0.3150022991 -1.2606631391
C 1.3876100799 0.0221892289 -2.4843155066
C 2.8357816564 0.2731157084 -1.9842720364
C 2.7315625885 0.5593905076 -0.4660010922
O 2.5936629946 1.9600106288 -0.1940900758
C 3.9003131730 0.0391957974 0.3426197969
O 4.5123197938 -0.9777333497 0.0348671386
C 4.2708702918 0.8523442984 1.5671543405
O 5.0638068121 0.1011804574 2.5165301383
S 6.6528131033 -0.1356679691 2.2034217227
O 6.6278223502 -1.5582732891 1.4747677560
O 7.2872783970 -0.3356223122 3.4949496574
O 7.1179283192 0.9035264484 1.2884393888
C 1.3739823607 -0.1441784056 -0.0652087707
C 1.5815402144 -1.6658831511 -0.0386183020
C 0.7229352245 0.3662936458 1.2191497920
C -0.7517498688 -0.0593405679 1.3551331451
O -0.8737345091 -1.4534546212 1.6861014085
C -1.5789599106 0.2456576161 0.0927616232
C -0.9160104206 -0.2154405858 -1.2236113789
C -1.6968560841 0.3482982978 -2.4129769237
C -3.1853602119 0.0008844576 -2.3455988902
C -3.7982078298 0.3756263266 -1.0332214012
C -4.9535067785 1.0780448504 -0.9892261462
C -5.7215921492 1.2855939652 0.2283260882
O -6.7803034836 1.9214611239 0.2279648940
C -5.2003661423 0.6058261874 1.4688563098
C -3.6766459215 0.5382574151 1.4659915081
C -3.0968678240 -0.1408795684 0.2107353816
C -3.3650152066 -1.6676133823 0.2571882919
H 0.4340218229 1.4077605888 -1.1692322682
H 1.1374272331 0.6625114353 -3.3334815770
H 1.2636104607 -1.0170520911 -2.8076891055
H 3.4808608044 -0.5902121487 -2.1580583643
H 3.3046493023 1.1305276247 -2.4766346930
H 3.2419794680 2.4323423029 -0.7333733904
H 3.3772255837 1.1518604742 2.1196501034
H 4.7925067013 1.7648721220 1.2559563613
H 5.8553987888 -1.5095609270 0.8237328938
H 2.1719026193 -2.0171168011 -0.8877772454
H 2.0998026734 -1.9663584224 0.8775316555
H 0.6197039438 -2.1761999318 -0.0496724716
H 1.2567582986 0.0148099702 2.1128798071
H 0.7526878609 1.4609998576 1.2307150269
H -1.1692943857 0.5335789119 2.1820655059
H -0.2716057684 -1.6265861957 2.4209967187
H -1.5770370640 1.3476271897 0.0401410305
H -0.9136305076 -1.3115278620 -1.2896265584
H -1.2797172981 -0.0270695925 -3.3533421172
H -1.5825601680 1.4415705204 -2.4210883279
H -3.7354635034 0.4715315913 -3.1659573478
H -3.2960645939 -1.0867964692 -2.4663854114
H -5.4040217056 1.4410449864 -1.9110890020
H -5.5787080683 1.1300810339 2.3513082812
H -5.6351588234 -0.4040776304 1.4854046909
H -3.3303017283 0.0103614115 2.3597130639
H -3.2868050776 1.5634534547 1.5218003363
H -4.4208597031 -1.8692610514 0.0486903255
H -3.1163067911 -2.0643334447 1.2406840152
H -2.7707870103 -2.2046661704 -0.4850157761
