63
CONF227
C 6.1648559682 -2.4329180046 -4.4605039175
C 6.8181666078 -2.0185297087 -3.1446459347
N 5.8246871715 -1.6432564586 -2.1322504297
C 5.1671174157 -0.3400709307 -2.2368244255
C 4.8081251072 0.1619791688 -0.8603501642
N 3.9257032649 -0.8117686853 -0.1867653471
C 4.1541308853 -2.1536519550 -0.3724432957
O 3.4937531310 -3.0521084284 0.1348961964
C 5.3467418851 -2.5699680228 -1.2799184815
O 5.7642117242 -3.7206680969 -1.1815546666
C 2.9587632271 -0.2555040175 0.7170638106
O 2.9073764478 0.9598797344 0.8793856762
N 2.1516250611 -1.1243260904 1.3547243627
C 1.1018049653 -0.6070141803 2.2087586179
C 0.3062478987 -1.7381750964 2.8262429177
C 0.1333433030 -1.7928405199 4.2094410988
C -0.6230555769 -2.8127557019 4.7815151898
C -1.2084829924 -3.7844257754 3.9740815792
C -1.0390713742 -3.7315559911 2.5915722347
C -0.2892281429 -2.7101345445 2.0171336014
C 0.1387530612 0.2775716057 1.3873169080
O -0.1160427726 0.0631627172 0.2078809470
N -0.4457529577 1.2792268840 2.0901672511
C -1.4165938661 2.1380261267 1.4922999370
C -2.7960539592 1.5806252499 0.9882342371
N -2.4627994935 2.1021956352 -0.3443607318
C -1.2377028669 2.5971145689 0.0358792680
O -0.4030973234 3.2370381324 -0.5867100627
C -3.5729031458 2.6474177812 -1.1099733592
C -4.4153402973 3.4886000039 -0.0871138607
S -4.3653448453 2.4195793752 1.4642589750
C -5.8695954143 3.6329368561 -0.5169354165
C -3.7799706373 4.8504745243 0.1811349728
C -3.2381229327 3.4495974857 -2.3715233686
O -2.0037972218 3.8919049054 -2.5887888973
O -4.1296635408 3.6892233164 -3.1591304090
H 6.9382340701 -2.7017880341 -5.1857361181
H 5.5706494989 -1.6168296315 -4.8823107745
H 5.5142449369 -3.2994209750 -4.3103236218
H 7.4123580907 -2.8376677334 -2.7344314393
H 7.4759429275 -1.1557788680 -3.2928355801
H 4.2747539977 -0.4006944062 -2.8750556912
H 5.8686582670 0.3620399187 -2.6953560128
H 5.7093039794 0.3221472629 -0.2561061043
H 4.2670392970 1.1043777179 -0.9373097264
H 2.2295720484 -2.1143306653 1.1460049958
H 1.5404315117 0.0020948093 3.0079097292
H 0.5960619363 -1.0383547613 4.8392866962
H -0.7491719216 -2.8503740468 5.8589355098
H -1.7946425686 -4.5817065835 4.4199846166
H -1.4952937205 -4.4855598930 1.9579758797
H -0.1714697567 -2.6648305039 0.9382871019
H -1.5689211741 3.0157544140 2.1266921183
H -2.9054882304 0.4945140664 1.0429975978
H -4.1901136096 1.8088141563 -1.4517257745
H -6.4512991116 4.1051439691 0.2800545324
H -6.3133782610 2.6619243335 -0.7511353191
H -5.9249990239 4.2712904479 -1.4030777592
H -3.8474632816 5.4780715244 -0.7158088362
H -2.7281985869 4.7690388746 0.4705119103
H -4.3127510625 5.3565386898 0.9897933148
H -0.1800919251 1.4447438796 3.0496662973
H -1.3395926172 3.6485306359 -1.8817827633
