42
CONF35
C -2.5966259168 -0.4895194142 -0.0903134630
C -3.2140489106 0.8556559816 0.2337285540
O -2.3234860801 1.9518041913 0.0639648661
C -1.5300036228 2.2535330327 1.2129342837
C -0.6175220322 3.4194209994 0.8885600812
O 0.4880115099 3.0686078675 0.0649905084
C 0.2175723963 3.1028884672 -1.3386402622
C 1.4330264140 2.5762579844 -2.0792142171
O 1.5010781975 1.1574989397 -2.1727355183
C 1.6191402818 0.5000701998 -0.9169517493
C 2.0125350758 -0.9370659078 -1.1977483073
O 1.9847377193 -1.6071416489 0.0540478216
C 2.1959627518 -3.0078195423 -0.0362344034
C 1.8514911529 -3.6350280057 1.3021785318
O 0.4581909812 -3.7430626378 1.5652708618
C -0.2219747891 -2.5166381766 1.8477742862
C -1.0881100155 -2.1334007576 0.6592459439
O -1.7287946855 -0.8981114158 0.9577801273
H -2.0423790299 -0.4137485097 -1.0416184500
H -3.4048441122 -1.2316303220 -0.2243178259
H -3.6259465502 0.8408188025 1.2553753822
H -4.0409938277 1.0257562559 -0.4663314337
H -2.1876255164 2.5373352755 2.0542691271
H -0.9318594244 1.3845083493 1.5180749490
H -0.1887000161 3.7870730370 1.8286228547
H -1.2010689833 4.2357874893 0.4329645111
H 0.0249796150 4.1443287525 -1.6510806606
H -0.6631309106 2.4970208676 -1.5885750691
H 1.3985791945 2.9288118377 -3.1153274092
H 2.3443149059 2.9745315018 -1.6023897314
H 2.3766496617 0.9887896439 -0.2858120750
H 0.6680031789 0.5129427360 -0.3642817034
H 3.0134820349 -0.9897602917 -1.6558707621
H 1.2926177547 -1.3884130353 -1.9013192739
H 1.5614058041 -3.4492160675 -0.8232454804
H 3.2505265668 -3.2238884815 -0.2847697962
H 2.2294877909 -4.6633578166 1.3139309926
H 2.3559665645 -3.0716388381 2.1033674434
H -0.8555473685 -2.6831583709 2.7281180156
H 0.4831287753 -1.7065853455 2.0668444603
H -1.8363840386 -2.9218563453 0.4728648563
H -0.4618428037 -2.0324014775 -0.2400788886
