66
CONF3
C -1.6960815900 4.3575267701 -1.1216786386
C -2.9446508382 3.7195683949 -0.5421028915
O -2.6175152023 2.4815854305 0.1307999117
C -2.4373801362 1.3946340274 -0.6727727327
O -2.6797104691 1.4156955104 -1.8682983602
C -1.9247307443 0.2615085859 0.0973193764
C -1.8111806278 -0.9588193136 -0.4936940595
N -1.3808329549 -2.0324658049 0.2530487413
C -1.0818780805 -1.9834611141 1.5968819969
C -1.1483178836 -0.7917567628 2.2523395462
C -1.4332225290 0.5138737551 1.5164599678
C -0.2321251483 1.4718001582 1.5123878136
C -0.3165582416 2.6595947408 2.2389749014
C 0.6950493104 3.6103215673 2.2065185330
C 1.8238110621 3.3940017280 1.4193699210
C 1.9250600748 2.2255940217 0.6812781408
C 0.9139688962 1.2520220191 0.7178771506
C 1.0674829572 0.0275693943 -0.0611799830
C 1.5842182966 -0.0661603749 -1.2958812529
C 1.6233736727 -1.3730722376 -1.9737456448
O 1.2077035716 -2.4214093813 -1.5072238617
O 2.1626705625 -1.2338370656 -3.2051665405
C 2.2728770900 -2.3849553261 -4.1247348394
C 2.8957520464 -1.7555876993 -5.3658608402
C 3.2006676641 -3.4407588542 -3.5328807580
C 0.8862879722 -2.9370597247 -4.4419660610
C -0.9320298157 -0.7528098434 3.6993567507
O -0.5427593881 -1.6692181846 4.4040027564
O -1.2365628452 0.4777697841 4.2021894252
C -0.9502413240 0.6788098371 5.6062994787
C 0.5163947813 1.0039589564 5.8134824804
C -0.7172215807 -3.3092940005 2.1933778525
C -2.1065903536 -1.2833954027 -1.9254901059
H -1.9421970416 5.3363545367 -1.5459859544
H -1.2809493796 3.7320098786 -1.9155828988
H -0.9382992150 4.4924403823 -0.3439347956
H -3.6915244632 3.5234350667 -1.3171493167
H -3.3855718490 4.3425701492 0.2406459932
H -1.1167829512 -2.8644118325 -0.2506166284
H -2.2200870809 1.0414954662 2.0630668736
H -1.2092059348 2.8396442945 2.8292912582
H 0.6001421904 4.5224289903 2.7878266748
H 2.6222604834 4.1282503991 1.3882735339
H 2.8128436672 2.0318400367 0.0872917923
H 0.7370683182 -0.8972217915 0.3987540403
H 1.9175577379 0.8010317363 -1.8566521465
H 3.8668065979 -1.3144792821 -5.1248858202
H 3.0400621807 -2.5182543768 -6.1361810309
H 2.2465561088 -0.9718623258 -5.7659056823
H 3.3901806422 -4.2115946867 -4.2865941581
H 2.7619250048 -3.9100836215 -2.6518691864
H 4.1589207677 -2.9895969631 -3.2582080908
H 0.9691221630 -3.6637126150 -5.2563162211
H 0.4463862100 -3.4301149879 -3.5747407297
H 0.2241799775 -2.1302359035 -4.7714174285
H -1.2453278524 -0.2137696434 6.1656700242
H -1.5903086896 1.5173382516 5.8940649754
H 0.6987852135 1.2380042437 6.8673152223
H 1.1405239575 0.1510018415 5.5367796186
H 0.8073647517 1.8672500710 5.2076583205
H -1.3941982312 -3.5677172682 3.0105474995
H 0.2835266684 -3.2757020482 2.6284587677
H -0.7553474632 -4.0955502961 1.4340601422
H -1.9528396085 -2.3488617584 -2.1187546665
H -3.1303949152 -1.0106368593 -2.1885163267
H -1.4569074879 -0.7030607596 -2.5856808506
