23
CONF5
C -1.7910588686 -0.5172921849 1.1881252673
C -1.2880321683 0.6647667560 0.6342858898
C -1.9184207988 1.2265499713 -0.4746541782
C -3.0415851877 0.6309676918 -1.0266532320
C -3.5418196967 -0.5385885529 -0.4662991156
C -2.9299189882 -1.1293411344 0.6459145105
Br -3.6190837748 -2.7146903621 1.4029655831
Br -5.0857914584 -1.2900686751 -1.2735031012
Br -1.2293901083 2.8180819777 -1.2356164570
O -0.2312919673 1.3036391971 1.2231583209
C 1.0351208039 1.0341381903 0.7660375963
C 1.2976906384 0.1123762117 -0.2381465512
C 2.6057003841 -0.1095234239 -0.6570121129
C 3.6577363763 0.5907265327 -0.0694288630
C 3.3906732311 1.5121793179 0.9408704020
C 2.0882487845 1.7339703177 1.3574946844
Br 1.7385336257 2.9911300660 2.7322072382
Br 5.4641041047 0.3410086127 -0.5944735672
Br 2.8864635544 -1.3797048891 -2.0383168069
Br -0.8775508877 -1.2380637034 2.6763924120
H 4.2039907712 2.0583485874 1.4012631054
H 0.4847720363 -0.4356272421 -0.6989714328
H -3.5283637921 1.0724239910 -1.8860819986
