41
CONF3
C 0.2601426082 -0.2676865417 -2.4423650736
C 0.1132388665 -1.4266921503 -1.4999255217
C 0.1071876202 -2.7301343984 -2.0078336626
C -0.0132261476 -3.8284361860 -1.1709271155
C -0.1409720106 -3.6469901804 0.2024364352
C -0.1484296517 -2.3660663265 0.7492298482
C -0.0106151100 -1.2641002192 -0.1149060624
N -0.0204448885 0.0489704751 0.4668078108
C -1.2880421797 0.7352702347 0.7640947997
C -2.4771586342 0.1123617436 0.0361052584
C -1.1749134180 2.2011925319 0.3442294678
O -0.6238840195 2.6043081521 -0.6534614195
O -1.8727399421 2.9785228032 1.1919730108
C -1.8649250933 4.3845095796 0.8648068321
C 1.0866905606 0.5972495457 1.0606684547
O 1.0024057965 1.6073094033 1.7542428465
C 2.4364543528 -0.0639042271 0.7703952197
O 2.8218628347 0.0757738602 -0.5873729821
C 2.9948193963 1.4449806538 -0.9584803052
C -0.3085201016 -2.1663944789 2.2308210333
H -0.4020976168 -0.3957880606 -3.3048261381
H 0.0419000764 0.6885991233 -1.9652302495
H 1.2883079874 -0.2275155139 -2.8164619248
H 0.2037330053 -2.8729409678 -3.0804459273
H -0.0107052005 -4.8311278883 -1.5865820125
H -0.2406615583 -4.5065281741 0.8586907688
H -1.4632128629 0.7250036851 1.8474154645
H -2.6149522686 -0.9315498158 0.3284101633
H -3.3806223423 0.6690284403 0.2984099067
H -2.3397795884 0.1545068685 -1.0475470065
H -2.4638826005 4.8661762524 1.6371738740
H -2.3001962751 4.5491170008 -0.1243931051
H -0.8397244461 4.7626395667 0.8770942838
H 3.1627226428 0.4144870832 1.4430726306
H 2.4020525406 -1.1399488393 0.9692971560
H 2.0486991717 2.0013395797 -0.9144294178
H 3.3666754251 1.4427168062 -1.9854278200
H 3.7298246662 1.9377360754 -0.3051856507
H -1.2538958921 -1.6646179250 2.4677306190
H 0.4886796112 -1.5445866272 2.6521243860
H -0.3017951025 -3.1267904415 2.7505712310
