65
CONF1
C 4.2213783270 -1.2736694076 0.5219981000
C 3.3055586432 -0.7151026767 -0.5756049765
C 3.7451788866 -1.1993617248 -1.9622684635
C 3.2487831421 0.7969746051 -0.4994108105
C 4.3838716326 1.5778836571 -0.7396633574
C 4.3593050654 2.9629038113 -0.6350394909
C 3.1802340673 3.6106192262 -0.2790872107
C 2.0314088186 2.8671979910 -0.0424305713
C 2.0827542156 1.4827537110 -0.1573466474
O 0.9156278771 0.7279209181 0.0110675337
P -0.0413057892 0.8485524021 1.3050048485
O 0.6013595553 1.2548156778 2.5611956445
O -1.2506624278 1.8258759831 0.8893639408
C -2.0392951375 1.5479216459 -0.2426332335
C -1.5483768800 1.9128544214 -1.4904921052
C -2.3148696849 1.6663925382 -2.6219044984
C -3.5628303145 1.0647608236 -2.4894525392
C -4.0378881108 0.7238883650 -1.2289727201
C -3.2899724701 0.9526458381 -0.0687696250
C -3.8338156228 0.5782265476 1.2938495243
C -4.1642513176 -0.9170066988 1.3764423066
C -5.0594795529 1.4362163338 1.6380244740
O -0.7772455777 -0.5811275017 1.2297770995
C -0.0343506519 -1.7583459365 1.0389755045
C 0.8009240730 -2.1923021042 2.0608364955
C 1.5281501287 -3.3628885219 1.8859038809
C 1.4041731255 -4.0813053138 0.7000687121
C 0.5552058092 -3.6270049696 -0.3020951193
C -0.1883576237 -2.4499560087 -0.1636073272
C -1.0791137498 -1.9467888471 -1.2806358093
C -0.2444507897 -1.5431994002 -2.5034990223
C -2.1523564634 -2.9750499870 -1.6573970698
H 5.2544322989 -0.9361237880 0.3839432288
H 3.8858533971 -0.9493117217 1.5114145158
H 4.2119875610 -2.3680595210 0.4986511580
H 2.2989068106 -1.1000215363 -0.3931162426
H 4.7740176283 -0.8968122151 -2.1842041309
H 3.6993685612 -2.2925254588 -2.0079692561
H 3.0971843610 -0.7961331668 -2.7462108017
H 5.3121675627 1.0821569845 -1.0077797209
H 5.2605212902 3.5361900830 -0.8249891461
H 3.1504440539 4.6907523061 -0.1843999352
H 1.1030482945 3.3517631934 0.2428203614
H -0.5703308078 2.3750446864 -1.5650622231
H -1.9362032869 1.9437221347 -3.5999890114
H -4.1694675332 0.8674464216 -3.3672130033
H -5.0163794821 0.2619661939 -1.1380455192
H -3.0588094736 0.7915299158 2.0348755881
H -4.5079703895 -1.1709613652 2.3842118093
H -4.9587907637 -1.1903410729 0.6740868443
H -3.2836062859 -1.5246489710 1.1518143047
H -5.4194111402 1.1971769070 2.6438718695
H -4.8155440292 2.5019708638 1.6032178452
H -5.8786607974 1.2532229506 0.9342875101
H 0.8770325951 -1.6034096498 2.9689142075
H 2.1894126284 -3.7083045786 2.6734789172
H 1.9682524920 -4.9970987593 0.5565291897
H 0.4681523958 -4.1940507053 -1.2241260547
H -1.5908751607 -1.0508205774 -0.9215753428
H -0.8955658734 -1.1400090192 -3.2857978185
H 0.2966304452 -2.4022824362 -2.9157063295
H 0.4847365323 -0.7736631065 -2.2355971227
H -2.7423593115 -3.2703643859 -0.7844952957
H -2.8319536351 -2.5468441401 -2.4013926857
H -1.7091122996 -3.8794549669 -2.0878920002
