51
CONF68
O 4.5460776194 0.6268861223 1.5397647137
C 3.8839116851 -0.3149071159 0.6892048813
C 2.4302573739 -0.4061717921 1.1625310732
C 1.6615303361 0.9112255387 1.0725546861
C 0.2038106455 0.7261820430 1.4606144895
C -0.7144723312 -0.0204343360 0.4295055370
N -1.5076440194 1.2320337739 0.3540484742
C -0.7097753436 1.9314173023 1.2324277309
O -0.7433450394 3.0838560675 1.6218123093
C -2.6279353473 1.5479679456 -0.4151017637
C -3.0899030106 0.6290003466 -1.3646657368
C -4.2066560048 0.9258696116 -2.1381048950
C -4.8387227288 2.1422899156 -1.9491035004
F -5.9291733752 2.4382579783 -2.7050594980
C -4.4028174530 3.0707159863 -1.0181044997
C -3.2905523901 2.7710079791 -0.2412926407
C -1.4594657776 -1.2319495532 0.9020501112
C -2.4293967443 -1.1423110908 1.9056907000
C -3.0852177605 -2.2737656502 2.3690660932
C -2.7712360588 -3.5245154358 1.8316185915
O -3.4443354065 -4.6057265908 2.3243029409
C -1.8082540872 -3.6321010245 0.8276376735
C -1.1652041478 -2.4868885858 0.3685670896
C 3.9771687512 0.0558040291 -0.7791406405
C 3.7517642590 -0.9290798808 -1.7451687275
C 3.7825017859 -0.6261299107 -3.1025244865
C 4.0500309318 0.6818442317 -3.4724006129
F 4.0877777117 0.9890381023 -4.7965799443
C 4.2863548285 1.6851114501 -2.5499910570
C 4.2467419388 1.3598920376 -1.1952947130
H 5.4800378031 0.6417407999 1.2944147531
H 4.3372080609 -1.3105520916 0.8158947370
H 1.9306522576 -1.1713828172 0.5555766750
H 2.4280858592 -0.7658244321 2.1989480289
H 2.1139017632 1.6591897401 1.7325733823
H 1.7096339506 1.3108016272 0.0513794997
H 0.1024235258 0.3170867125 2.4722727248
H -0.1924683002 -0.2270548164 -0.5134500159
H -2.5804888948 -0.3188128112 -1.4987150674
H -4.5783046694 0.2250152351 -2.8774091062
H -4.9281530949 4.0123214826 -0.9013674958
H -2.9334309301 3.4797271240 0.4952967913
H -2.6824496678 -0.1732554844 2.3276882966
H -3.8417194489 -2.2027995006 3.1438996311
H -3.1407084213 -5.4064247128 1.8758292645
H -1.5695605028 -4.6042911585 0.4045598104
H -0.4213682503 -2.5737891268 -0.4193386749
H 3.5509493692 -1.9513028174 -1.4344315488
H 3.6124792386 -1.3838201997 -3.8598259284
H 4.4950318369 2.6954308872 -2.8851829343
H 4.4244274684 2.1335765634 -0.4557711184
