61
CONF14
C -1.4705558311 -1.8523800028 -3.5618924859
C -0.8995798987 -0.5976367438 -2.8864043948
C -1.7739824773 -0.1101137205 -1.7580455597
C -2.9722906713 0.5428225304 -2.0687987183
C -3.8344802469 0.9996205000 -1.0785789772
C -3.4826555841 0.7898674555 0.2598816831
C -2.2994687151 0.1485642292 0.6138609220
C -1.4330768950 -0.3011407732 -0.4095430805
C -0.1532590435 -0.9331778546 -0.0482905747
C 0.9498720529 -0.3016328609 0.4406739074
N 1.9515087929 -1.1676391643 0.7785889100
C 3.3779166218 -0.8635841821 0.6023198848
C 3.9422705875 -1.3063257244 -0.7481040903
O 4.3454898214 -2.6756088917 -0.7650657041
C 3.2649354523 -3.6051595458 -0.8402603885
C 2.3463475968 -3.5860098804 0.3792995210
N 1.4793538214 -2.4250866382 0.4154491019
C 0.1896545222 -2.3419862475 -0.1048699063
O -0.4718192659 -3.3259518863 -0.4681477327
O 1.1045401999 1.0259609709 0.7135615989
C 1.2867421780 1.8726765925 -0.3827347266
O 1.5512526251 1.4397540639 -1.4725593678
C 1.0844840295 3.3182552566 0.0173993556
C 1.8911290820 3.6396932129 1.2865402317
C 1.5296865885 4.2150259932 -1.1398089032
C -0.4232430266 3.5084996433 0.2864302890
C -1.9196018758 -0.0766164695 2.0615082957
C -2.9800376113 0.2849952530 3.0965584580
C -5.1243877581 1.6934212352 -1.4231484717
H -2.4643259001 -1.6537524708 -3.9763256744
H -1.5560723617 -2.6681079887 -2.8382522144
H -0.8200730748 -2.1813233493 -4.3788319034
H 0.1064654867 -0.8054023255 -2.5114299116
H -0.8064890975 0.2018541630 -3.6315696781
H -3.2275031105 0.7015764149 -3.1145986261
H -4.1569711235 1.1427156148 1.0340070701
H 3.4709413555 0.2201374473 0.7140679059
H 3.9492654580 -1.3307917028 1.4114591602
H 4.8519103616 -0.7297404583 -0.9407806257
H 3.2175413312 -1.0997719890 -1.5515229975
H 2.6674739741 -3.4227516957 -1.7476584866
H 3.7301563443 -4.5927439612 -0.9152788212
H 1.6767214810 -4.4507102408 0.3320055039
H 2.9239597679 -3.6513643142 1.3081179372
H 2.9582498245 3.4500397309 1.1323979287
H 1.7616302421 4.7001889200 1.5228435395
H 1.5480375213 3.0510305570 2.1401081848
H 2.5915357624 4.0727930333 -1.3610790930
H 0.9556190990 4.0038026580 -2.0456184658
H 1.3697940181 5.2605773033 -0.8612989298
H -0.7616528874 2.8800686291 1.1146498803
H -1.0144162192 3.2666593059 -0.6030769335
H -0.6011999984 4.5567241415 0.5461088434
H -1.0038162164 0.4904178492 2.2757201196
H -3.9074623044 -0.2733841686 2.9323551765
H -2.6155846112 0.0450552021 4.0995086949
H -5.2353660072 2.6225589563 -0.8548527132
H -5.1752199697 1.9299147057 -2.4888652095
H -5.9842513305 1.0600319606 -1.1758858682
H -1.6372015591 -1.1308281693 2.1800377398
H -3.2188880292 1.3531596571 3.0766215633
