123
CONF6
C -3.3217190801 3.9286899565 0.7412624719
C -1.8626803225 3.4904542856 0.5480955947
C -1.1835568279 3.4515532208 1.8893323424
C 0.0390227525 3.9320439741 2.2075537674
C 0.9839764417 4.4488111419 1.2500909266
C 2.2469653747 4.9068793625 1.4055854938
C 3.0423673188 5.0842762775 2.6610919103
O 3.7078152565 6.0940178436 2.8322011501
N 3.1151593170 4.0807654678 3.6380414975
C 2.6152114697 2.7643240799 3.5359523501
C 1.8842547964 2.2546384776 4.5730598439
C 1.1490586208 1.0005431688 4.5239404441
C 0.9467453805 0.4029203166 3.2623103213
C -0.0159155027 -0.6072166661 3.1518960595
C -0.6059882785 -1.1531077202 4.3027515125
C -0.3280306071 -0.6988386555 5.5853139191
C 0.5161714714 0.4187879453 5.6688983695
O 0.7075926345 0.8879939265 6.9164040501
C -0.9444841549 -1.2946462730 6.8118717223
O -1.5202727047 -2.1171408006 4.0447776194
C -1.8765505905 -2.0039441197 2.6143739052
C -0.7968185584 -1.0552811199 2.0329562367
O -0.8099477955 -0.7076402255 0.8630414008
O -1.9264332952 -3.2535047739 2.0119277260
C -0.7624762410 -3.7116331025 1.3845491947
C -0.7025354853 -3.8040673264 0.0611201772
C -1.8168479669 -3.4335740434 -0.8800847189
C -1.3669586664 -2.4809512118 -2.0063669819
C -2.5520555793 -1.6491989371 -2.5499519946
C -2.8922471343 -0.4080914169 -1.6771251367
C -2.2992414350 0.8357531946 -2.3776280605
C -2.4243819422 2.1754724042 -1.6083973956
C -1.7812135850 2.1363911133 -0.2043440988
O -0.3976630772 1.7690797648 -0.3332696630
C -1.8590743164 3.3103350971 -2.4714026719
O -0.9512278935 0.5981611589 -2.7916318503
C -4.3906822784 -0.2256918377 -1.4245509962
O -3.7291350520 -2.5062592755 -2.6275517346
C -4.0532111872 -3.0420171396 -3.8257982544
O -3.4986838152 -2.7928026675 -4.8707800934
C -5.1919591906 -4.0120558914 -3.6655808917
C -0.6184669969 -3.2105611941 -3.1227057752
O -2.3217824334 -4.6430469147 -1.4720983139
C -3.1945411401 -5.3432668379 -0.6008366118
C -3.2552661010 -1.3841053382 2.5365200200
C 1.8207881638 0.8212491798 2.1849751322
N 2.0404285951 0.2362730390 1.0539312017
C 3.1372295400 0.9921539167 0.4489463512
C 2.7169904288 1.5634167932 -0.9235746879
C 2.4196197020 0.4415531609 -1.9056460648
N 3.5889705686 -0.4206428811 -2.0981575715
C 3.9850371441 -1.0286724327 -0.8259711896
C 4.3257876509 0.0317680421 0.2148586680
C 3.2901159039 -1.4370480491 -3.1091427462
C 4.4935830548 -2.2693752156 -3.5640727962
C 5.6521349733 -1.3800360341 -4.0116784439
C 4.0494597056 -3.2060478912 -4.6897822899
N 3.5238243920 2.0804802749 1.3423859401
C 2.7314945045 1.9625127312 2.3580615553
O 1.7064104975 2.9987199285 5.7091591564
C 3.0241293307 5.3939440537 0.2119886407
H -3.3720675816 4.8381425717 1.3465269584
H -3.8116495475 4.1341928672 -0.2137955960
H -3.8949711177 3.1486631234 1.2571078300
H -1.3563896351 4.2312981839 -0.0776475590
H -1.7867993574 3.0429670808 2.7018218315
H 0.3277085972 3.9149844207 3.2547780529
H 0.6333923390 4.4431200151 0.2210100565
H 3.8972827175 4.2535509447 4.2607572891
H 1.1855743328 1.7327948498 6.8770021041
H -0.1756861864 -1.7211293527 7.4644706559
H -1.6489531418 -2.0808749863 6.5393506476
H -1.4664019585 -0.5300753449 7.3949984690
H 0.0395113201 -4.0012705239 2.0609833316
H 0.1967495333 -4.2327793194 -0.3728840074
H -2.6216988671 -2.9510393443 -0.3072150581
H -0.6819771606 -1.7589597875 -1.5477100155
H -2.3175574094 -1.3275278161 -3.5679395495
H -2.3961456478 -0.5381497677 -0.7111260618
H -2.8695513285 0.9641300504 -3.3120085548
H -3.4978544538 2.3510735908 -1.4729841030
H -2.3008613024 1.3798656455 0.4043048407
H -0.2470824099 0.9592555806 0.1882439296
H -0.7660383484 3.2865711896 -2.4887350739
H -2.1785067606 4.2921767974 -2.1100149406
H -2.2043206235 3.2079795401 -3.5044062612
H -0.3993122198 0.8695502488 -2.0400534710
H -4.8280376559 -1.1169779372 -0.9696681387
H -4.5675328428 0.6159801650 -0.7472222252
H -4.9351312627 -0.0315563651 -2.3559312936
H -5.6451867562 -4.2094652537 -4.6364866743
H -4.7848024860 -4.9449688867 -3.2616935077
H -5.9340892981 -3.6381575828 -2.9568518649
H -0.2192249815 -2.4789274979 -3.8311333985
H 0.2196435026 -3.7912405361 -2.7237416017
H -1.2742945401 -3.8938373200 -3.6647188939
H -3.4874778597 -6.2633235584 -1.1134800098
H -2.7048992463 -5.6051738047 0.3487700780
H -4.0940835726 -4.7461125030 -0.3814449409
H -3.9846011858 -2.0845084592 2.9504295802
H -3.4912340202 -1.1845565447 1.4878045546
H -3.2863571648 -0.4482060604 3.1005765150
H 3.5529886299 2.1698446500 -1.2859172890
H 1.8422052970 2.2035470983 -0.7907911006
H 2.1493639645 0.8781895551 -2.8747737189
H 1.5463724737 -0.1427659905 -1.5517171911
H 4.8799277284 -1.6392127957 -0.9898239139
H 3.1921288717 -1.6968024411 -0.4343031526
H 5.1696208800 0.6397497728 -0.1253810132
H 4.5986195872 -0.4405019150 1.1645343411
H 2.8901734285 -0.9131620448 -3.9888645845
H 2.4880580412 -2.1219601072 -2.7595476886
H 4.8327730919 -2.8968225021 -2.7282892672
H 5.9897240067 -0.7266455320 -3.2030701179
H 5.3374225109 -0.7369224514 -4.8422364728
H 6.4988745610 -1.9843456738 -4.3536191262
H 3.7253355982 -2.6307231519 -5.5649581951
H 3.2127951281 -3.8407516693 -4.3781414705
H 4.8706881261 -3.8576798629 -5.0038352373
H 2.0508311999 3.8917445015 5.5355455342
H 3.2936572357 6.4474092995 0.3315856873
H 2.4430592044 5.2684530071 -0.7039334828
H 3.9579988708 4.8283823230 0.1163975465
