66
CONF11
C 1.1476839050 -1.8282690504 3.0278173085
C -0.0750963935 -2.1945693878 2.2117268280
O -0.7572030675 -1.0016744128 1.7446336671
C -1.6170203384 -0.3951013751 2.6059499400
O -1.8848275777 -0.8647852288 3.7056148526
C -2.1471217918 0.8339984227 2.0238123475
C -3.0736953980 1.5757201318 2.6958178070
N -3.6203386283 2.6779357539 2.0776760728
C -3.4597975486 2.9865849535 0.7460827808
C -2.5395151199 2.2941327282 0.0144545351
C -1.5974510062 1.3003356171 0.6795193697
C -0.2024501351 1.9068441470 0.8576255323
C -0.1058466608 3.0949183261 1.5876998898
C 1.1161950296 3.7081026964 1.8301445517
C 2.2858917867 3.1347522287 1.3309078419
C 2.2134064365 1.9564388145 0.6069419517
C 0.9831333614 1.3160090819 0.3620664806
C 0.9525253454 0.0739011993 -0.3988439515
C 1.9771709604 -0.7798848076 -0.5677535928
C 1.7911910935 -2.0039680322 -1.3612719918
O 0.7500163149 -2.3349332218 -1.9095045952
O 2.9383531256 -2.7137693320 -1.3858427144
C 3.0366313392 -4.0118749631 -2.1034016737
C 2.7826645098 -3.8069069028 -3.5923808090
C 4.4857229491 -4.4140772092 -1.8573475088
C 2.0854745404 -5.0242340009 -1.4758465535
C -2.4019447734 2.5324273850 -1.4182864853
O -3.0757652607 3.2898559071 -2.1076419205
O -1.3952992914 1.7862923392 -1.9465021128
C -1.1723169801 1.9362481223 -3.3747083307
C -0.0065956024 1.0490142365 -3.7439926440
C -4.3623259867 4.0751475781 0.2534700821
C -3.6070364964 1.3132343936 4.0706759516
H 1.6850151583 -2.7399302718 3.3077846201
H 0.8657928202 -1.2980798677 3.9414066242
H 1.8206650744 -1.1957343748 2.4412585940
H -0.7756389163 -2.8116218060 2.7809449045
H 0.2050121178 -2.7174355086 1.2934253497
H -4.3053050908 3.2074164560 2.5964831401
H -1.5219171287 0.4290282639 0.0329856443
H -1.0128252258 3.5486250607 1.9764459954
H 1.1571069112 4.6320899455 2.3985953323
H 3.2464776560 3.6117467534 1.4974395612
H 3.1224161386 1.5291282558 0.1961545670
H 0.0161427970 -0.1977476331 -0.8735045255
H 2.9506327547 -0.6297932252 -0.1133266561
H 3.0273971735 -4.7343347266 -4.1193347936
H 1.7407281384 -3.5550168444 -3.7923913506
H 3.4275776613 -3.0123581389 -3.9805310082
H 5.1682309252 -3.6655909165 -2.2703588954
H 4.6840382125 -5.3734013455 -2.3430539760
H 4.6788750986 -4.5185721371 -0.7857482628
H 2.2529375298 -5.0816705831 -0.3957037373
H 1.0422852304 -4.7694011142 -1.6658960341
H 2.2898867784 -6.0093172949 -1.9066566084
H -0.9657019615 2.9898940726 -3.5887948284
H -2.0867235916 1.6496680787 -3.9047362606
H -0.2211938106 0.0014412025 -3.5136783286
H 0.1843376772 1.1354470784 -4.8177373709
H 0.8982829674 1.3476347427 -3.2064297325
H -5.1160328997 3.6695326209 -0.4274815368
H -3.8000519701 4.8237301910 -0.3059082186
H -4.8722416327 4.5562394698 1.0916424711
H -4.2521662947 2.1341983947 4.3937442516
H -4.1858107330 0.3855421957 4.0875604718
H -2.7926434441 1.1907987671 4.7860886638
