35
CONF119
C -1.9529904447 1.7487778928 0.9924198425
C -1.8836276620 0.2585991034 0.8376007086
C -2.9727954702 -0.5652874281 0.8223351989
S -2.5236087592 -2.2354447566 0.6677368720
C -0.8315604290 -1.8540432705 0.6198157351
C -0.6624474642 -0.4907971173 0.7119870454
N 0.6227295114 0.1297358271 0.7067891703
C 1.2884618575 0.5115098935 -0.5670256917
C 2.3218776634 -0.5269075175 -0.9961065726
C 0.2398350645 0.7472560456 -1.6495749462
O 0.9228442788 1.2609300189 -2.7867880732
C 0.0200165342 1.5168657904 -3.8606469560
C 1.2864204288 0.3807822044 1.8722304797
O 2.3854320756 0.9230625038 1.9139958262
C 0.5342257967 -0.0886066911 3.1217818277
Cl 1.4415645977 0.3179491510 4.6300458411
C 0.1998036002 -2.9257867394 0.5233078711
H -2.2350306938 2.2348677701 0.0521959825
H -0.9854029010 2.1580835051 1.2968388588
H -2.6977057211 2.0253479124 1.7433814363
H -4.0163636025 -0.2912081021 0.9057357281
H 1.7929322612 1.4642197635 -0.3725715524
H 2.9012328367 -0.1422784312 -1.8389412641
H 3.0090542599 -0.7487538362 -0.1757069296
H 1.8314940380 -1.4529619373 -1.3104581695
H -0.2735840485 -0.1941240753 -1.9068324572
H -0.5147481830 1.4701610352 -1.3060800588
H 0.6108444989 1.9049663752 -4.6931858958
H -0.7359047618 2.2618406729 -3.5721210654
H -0.4913323121 0.5955129969 -4.1751272933
H 0.3978134187 -1.1724476431 3.1040174595
H -0.4469926219 0.3858703209 3.1937475707
H 1.1694663687 -2.5378015898 0.8458486697
H -0.0591943647 -3.7807753369 1.1541316003
H 0.3072403646 -3.2891139984 -0.5047763012
