53
CONF10
C -1.5732394140 4.4036326555 -1.3710903136
C -0.9655696306 4.2397323697 0.0075945409
O -0.7631928447 2.8344599086 0.3056319383
C 0.3828027605 2.2628877400 -0.1417655901
O 1.2752995599 2.9076535963 -0.6843693734
C 0.3894702060 0.8310985853 0.1207739876
C 1.4729535823 0.0782936230 -0.2307137763
N 1.5045527028 -1.2578566022 0.0567044214
C 0.5712149353 -1.8858426133 0.8490100323
C -0.5520456698 -1.2119751089 1.2354838138
C -0.8641965890 0.1803128409 0.6965369093
C -1.9525319325 0.1156442940 -0.3773493698
C -1.6916612042 -0.6290125070 -1.5347205716
C -2.6074906263 -0.7345027231 -2.5724854868
C -3.8337844566 -0.0812732926 -2.4760308447
C -4.1285762079 0.6651750207 -1.3419272621
C -3.1935576503 0.7544092151 -0.3122892800
Cl -3.6673663785 1.7226913861 1.0864802153
C -1.5094116083 -1.8429520926 2.1382927564
O -1.4063622760 -2.9339118423 2.6863768043
O -2.5913978071 -1.0447276222 2.3349426025
C -3.5966069299 -1.5631027882 3.2278505424
C 0.9220605422 -3.3000298415 1.2001448764
C 2.6936262015 0.6003236292 -0.9708146693
O 3.5799290688 -0.4445693416 -1.3571368322
C 4.8425891626 -0.4499737418 -0.6742118676
C 4.7601044486 -1.0153733623 0.7334740445
N 4.2482511696 -2.3938036435 0.6901539344
H -2.5135439213 3.8484842233 -1.4424957070
H -0.8890605566 4.0435147991 -2.1443109458
H -1.7799880500 5.4622009427 -1.5574742235
H -1.6496824090 4.5845595667 0.7866049839
H -0.0139758046 4.7701398581 0.0983046523
H 2.3871805279 -1.7503203165 -0.1129253415
H -1.2391500844 0.7971888601 1.5135245159
H -0.7341378169 -1.1362428049 -1.6127558350
H -2.3655951935 -1.3215560685 -3.4524742720
H -4.5630593473 -0.1492442496 -3.2767262205
H -5.0792980491 1.1786814116 -1.2507357865
H -4.0061902632 -2.5005539313 2.8420080718
H -3.1762614347 -1.7320889366 4.2229629119
H -4.3706683786 -0.7966020669 3.2656539070
H 1.1993356012 -3.3784547336 2.2556787065
H 0.0665746469 -3.9591619673 1.0502445007
H 1.7631897816 -3.6401264428 0.5934017453
H 2.3533915171 1.1089074626 -1.8786114723
H 3.2043555618 1.3534606523 -0.3590506627
H 5.4975278087 -1.0778603520 -1.2891591059
H 5.2635707238 0.5649407964 -0.6487729577
H 5.7594732409 -0.9221674890 1.1900436496
H 4.0753397002 -0.4073477005 1.3400679430
H 4.1366050904 -2.7522509066 1.6327899924
H 4.9282038831 -2.9955067608 0.2348488622
