47
CONF18
C 5.9098039366 -4.0826758472 -0.2114875996
C 4.7394543054 -3.3041843262 -0.8052135252
C 4.3182561327 -2.1343085307 0.0225141341
N 4.9063123537 -1.8214344952 1.1824038798
N 4.2759025969 -0.7381588363 1.6531535334
C 4.7273909623 -0.1699509624 2.9193631859
C 3.2760511412 -0.3073112282 0.8263467365
C 2.4410157926 0.8648628145 1.1758553499
O 2.4627954549 1.3479746854 2.3069165361
N 1.6763517172 1.3623556746 0.1659218997
C 0.6985706676 2.4197253810 0.3800250605
C -0.7143259832 1.9528229061 0.1197253360
C -1.1896761996 0.7697373615 0.6807177359
C -2.4982993455 0.3511145615 0.4619023457
C -3.3806622141 1.0979143203 -0.3243526042
C -2.8909867838 2.2831992090 -0.8851847834
C -1.5839674766 2.7024683617 -0.6711222381
C -4.8265743080 0.6708078532 -0.5881153778
C -5.7815269795 1.7651774835 -0.0751367232
C -5.1824091462 -0.6446320345 0.1146706387
C -5.0330423321 0.4797194675 -2.1025662664
C 3.2975098954 -1.2109813462 -0.2388758197
Cl 2.2689045236 -1.2647342915 -1.6367738914
H 6.7886399605 -3.4429901654 -0.0977837094
H 5.6585409357 -4.4739552835 0.7774892637
H 6.1724109373 -4.9218365257 -0.8611093843
H 4.9929127632 -2.9461034781 -1.8115889097
H 3.8735602070 -3.9657928703 -0.9395139173
H 5.6152831343 -0.7349446673 3.2052138905
H 3.9495816739 -0.2601199830 3.6797229094
H 4.9667157292 0.8881443448 2.7994174346
H 1.6510751141 0.8737730227 -0.7163928249
H 0.8155131096 2.7448128823 1.4192498871
H 0.9296722828 3.2776424817 -0.2640041003
H -0.5289769616 0.1661654273 1.2972083430
H -2.8255736210 -0.5742646456 0.9204185834
H -3.5364543718 2.8938443800 -1.5086956978
H -1.2355733904 3.6261914764 -1.1263773261
H -5.6452572333 1.9241095381 0.9992740995
H -6.8220105108 1.4713522682 -0.2520228532
H -5.6108591152 2.7193420770 -0.5812832255
H -6.2231153058 -0.9039472763 -0.1035983622
H -4.5546796000 -1.4717106173 -0.2325059826
H -5.0814544891 -0.5626612746 1.2017156087
H -6.0633801667 0.1676853963 -2.3058868280
H -4.3568490573 -0.2886165225 -2.4908025661
H -4.8465733503 1.4043714417 -2.6560324836
