37
CONF3
C 4.1039368580 -2.4289199128 -0.9925382123
C 4.2251082556 -2.4158799176 0.5180567746
C 4.4663007243 -3.7902834803 1.1156490407
O 2.9456029020 -1.8979688677 1.0100484961
C 2.9603084267 -1.3112507532 2.2282073897
O 3.9419070947 -1.2127869887 2.9275193307
C 1.6085813807 -0.7754293710 2.5626564864
C 1.1472065008 -0.6322147039 3.8800087747
C -0.0986151623 -0.0730981713 4.1387676331
C -0.8788434947 0.3525582400 3.0795518045
C -0.4708184921 0.2368788216 1.7490973485
C 0.7769591130 -0.3420731322 1.5269585533
C -1.3039250123 0.6962122766 0.6377342948
N -1.9038072852 1.8938846773 0.6683417166
N -2.5736643539 2.0069450763 -0.4788505044
C -2.4224561546 0.9129888743 -1.2775623283
C -1.6032173812 0.0386223948 -0.5772885427
Br -1.0745002282 -1.6974168345 -1.0646000191
C -3.0939537572 0.8244911094 -2.6043413052
F -2.7178633339 -0.2614490812 -3.2894460008
F -2.8145173888 1.9133911318 -3.3701546980
F -4.4475780837 0.7852404419 -2.4795165313
C -3.2930551199 3.2421257149 -0.7651234615
F -2.0845545710 0.8670486209 3.3611144545
Cl 2.0586288045 -1.1934736511 5.2525299509
H 5.0378946042 -2.7877064566 -1.4345852277
H 3.2939580362 -3.0935611651 -1.3081283955
H 3.9022844629 -1.4255271567 -1.3768701233
H 5.0063300045 -1.7210094554 0.8437136509
H 5.4105034774 -4.1963325953 0.7399465046
H 3.6587160985 -4.4730520671 0.8335372480
H 4.5256374544 -3.7339216563 2.2047907984
H -0.4714266950 0.0185026978 5.1511872687
H 1.1338884342 -0.4416331845 0.5099357153
H -3.4200199268 3.7624214047 0.1840034061
H -4.2691751001 3.0148455858 -1.1984374334
H -2.7223863955 3.8674549870 -1.4577056794
