44
CONF21
C 3.3932960388 -1.3494677030 -2.2240816665
C 2.8214973220 -0.3982887574 -1.1774117482
C 3.7677192954 -0.1671158725 0.0606816102
N 2.9073019525 0.1027214945 1.1929499051
C 1.6455459966 -0.6519996356 1.2749449159
S 1.2714901023 -1.1787316968 -0.4458160095
C 0.9709083160 0.6370976352 1.8691330194
C 2.3225209855 1.3183363088 1.5292329796
O 2.7439194091 2.4502575764 1.5074798113
N -0.1775305792 1.1782774366 1.2262268803
C -1.3691890913 1.3521203245 1.8485012671
O -1.5656424060 1.1334277124 3.0429559176
C -2.5107343102 1.8088874942 0.9239190309
C -3.3470883227 0.5874174190 0.5966167099
C -2.8780233822 -0.3813752141 -0.2972863061
C -3.6278945770 -1.5142683710 -0.5816402081
C -4.8666154577 -1.6975753833 0.0373842600
C -5.3464566938 -0.7443476857 0.9362513187
C -4.5847797649 0.3886762497 1.2078698032
O -5.5647905528 -2.8280587415 -0.2791344263
N -1.9923952330 2.4275084954 -0.3038742170
C 4.6454905318 -1.3731207133 0.3543064037
O 5.8219507902 -1.2834878076 -0.2852095115
O 4.3196851779 -2.3020931534 1.0595744454
C 2.4778993683 0.9483005370 -1.8146178804
H 4.3025211046 -0.9179067517 -2.6548386055
H 2.6696735944 -1.4853125879 -3.0325770667
H 3.6281435448 -2.3313501849 -1.8047752328
H 4.4002078112 0.7043545476 -0.1342485787
H 1.6672959165 -1.5224385121 1.9325742566
H -0.1614146777 1.3717610943 0.2301337327
H -3.1221874426 2.4862125039 1.5374233058
H -1.9140676859 -0.2498866384 -0.7794489777
H -3.2644682045 -2.2632070466 -1.2781770207
H -6.3122712038 -0.8854616768 1.4141339839
H -4.9659802501 1.1306960323 1.9038029052
H -6.4002807622 -2.8394530134 0.2073941377
H -2.7514872943 2.5239266627 -0.9701841942
H -1.6639412988 3.3667596717 -0.0997904315
H 1.7314842993 0.8077983632 -2.6008202374
H 2.0762756262 1.6576506719 -1.0864851325
H 3.3797902235 1.3815162037 -2.2620749946
H 0.7800836021 0.5544742105 2.9431615338
H 6.3334373718 -2.0940182217 -0.1127266271
