18
CONF1
C 1.4482629685 -0.4196008490 -0.9075153129
C 1.7920335086 0.6133366791 0.1508377532
O 1.2181684953 1.6779307058 0.3099659130
O 2.8710431344 0.2544415411 0.8555177310
N 0.1910748407 -0.2236818526 -1.6040183543
C -0.9997217148 -0.7992097067 -0.9817766886
P -1.4222264516 -0.1872388229 0.7024578545
O -0.5036483638 -0.6683664528 1.7749978250
O -2.9406498749 -0.6271689612 1.0139420750
O -1.5521856717 1.4172006816 0.5694590555
H 1.4836779938 -1.4169292694 -0.4565662712
H 2.2824347074 -0.3774258775 -1.6246693581
H 3.0931330402 0.9685252676 1.4788610837
H 0.0491997169 0.7557798169 -1.8277807813
H -1.8628827668 -0.6068381029 -1.6306264147
H -0.8846548589 -1.8881805717 -0.9028254615
H -3.5972962766 -0.2793007729 0.3896555347
H -0.6657625644 1.8067268121 0.4107251030
