43
CONF30
C -2.4525736922 -2.3058038251 2.0412914436
C -2.4947927797 -2.8324635489 0.6048288015
C -1.4038478937 -2.0184517105 -0.0963934204
N -1.3686646131 -0.7448603248 0.6688181586
C -2.2821639499 -0.8076651177 1.8216871450
C -1.0498618674 0.4567613653 0.1026728160
C -0.0672826758 0.5689213208 -0.9173386623
C 0.1867817062 1.7956604351 -1.5273005933
C -0.4363629722 2.9669375352 -1.1186059933
C -1.3293896214 2.8849269908 -0.0485174639
C -1.6298857617 1.6616147602 0.5444053850
C -2.0091752074 4.0918578216 0.4858893013
O -2.7807815883 4.0849066469 1.4268254214
O -1.6808021688 5.2154104640 -0.1828255913
S 1.3521939298 1.8934606218 -2.9053219731
O 0.9342811374 0.9390029441 -3.9432447675
O 1.4839338934 3.3194488152 -3.2399305945
N 2.8669604352 1.3971619489 -2.3864821208
O 0.6508021654 -0.5298522630 -1.3358756590
C 1.5997041009 -1.0621714149 -0.4662926043
C 2.1987765740 -2.2443535692 -0.8951543081
C 3.1806539551 -2.8293185827 -0.1038089970
C 3.5576743981 -2.2423784344 1.1038525475
C 2.9486301159 -1.0592955892 1.5122827966
C 1.9653455228 -0.4547046914 0.7302841390
H -3.3539285955 -2.5359821236 2.6135511049
H -1.5848096541 -2.7114897515 2.5733858481
H -2.3101286115 -3.9065888197 0.5293137689
H -3.4723955445 -2.6156752252 0.1605269237
H -0.4382893302 -2.5341178953 -0.0348330331
H -1.6294249338 -1.8304196359 -1.1505623460
H -3.2547174437 -0.3473774413 1.5832279012
H -1.8523187461 -0.2825390185 2.6818703463
H -0.2162930685 3.9051560206 -1.6076637988
H -2.3440676746 1.6533185164 1.3571679763
H -2.1595962426 5.9567062747 0.2245748921
H 3.1967886829 1.9592010306 -1.6032566419
H 2.8801246479 0.4070677953 -2.1499402014
H 1.8882462383 -2.6881005066 -1.8354825336
H 3.6508441206 -3.7500579706 -0.4343183108
H 4.3224664548 -2.7033908914 1.7198206221
H 3.2376931696 -0.5919683782 2.4483974038
H 1.4996525681 0.4715044114 1.0484746651
