39
CONF53
C 3.6850313415 1.8002328945 -2.8199692950
C 4.4080193575 0.6791500449 -2.0742130618
C 4.3915620734 0.8353731720 -0.5496674327
C 3.0022072526 0.8777830459 0.0453593512
C 2.9391855277 0.9067628242 1.5795764377
O 1.8517206326 0.0126226781 1.9128774715
C 1.2714482938 -0.4225459687 0.6864304056
C 0.8791284854 -1.8983188814 0.8483607348
N -0.2179846443 -2.0534889563 1.7847701071
C -0.1806018414 -2.0621772470 3.1332625618
N -1.4114184867 -2.1211366157 3.6255253710
C -2.1829039067 -2.1389002554 2.5017114209
N -1.5067489065 -2.0949267430 1.3612291240
O 2.3042800034 -0.3528743860 -0.2658602552
C 0.0811303735 0.4736877516 0.3202108773
C -0.5463436679 0.4595495292 -0.9299188057
Cl -0.0206657200 -0.6087206267 -2.2246134327
C -1.6343214416 1.2755194680 -1.2209847505
C -2.1125217686 2.1186593531 -0.2274810533
Cl -3.4866982061 3.1491722569 -0.5848177121
C -1.5330462402 2.1606034968 1.0321442279
C -0.4439951264 1.3364378514 1.2848285887
H 3.8141221839 1.6917611454 -3.9011436302
H 2.6091711434 1.7938800475 -2.6166491243
H 4.0767334128 2.7820057529 -2.5303162682
H 5.4544504024 0.6419627659 -2.3986716482
H 3.9647305651 -0.2872989277 -2.3409491039
H 4.8972792418 1.7683437920 -0.2667736834
H 4.9453632415 0.0121343144 -0.0815778902
H 2.4235638793 1.7168197377 -0.3659083084
H 2.7309421401 1.9102240447 1.9655594820
H 3.8532816809 0.5121675081 2.0363374896
H 0.5721591255 -2.3151928665 -0.1116668185
H 1.7517882623 -2.4394273705 1.2223820621
H -3.2641837298 -2.1910694689 2.5197803814
H -2.0981114732 1.2463328328 -2.1991931217
H -1.9191199252 2.8196045617 1.8006616954
H 0.0200472247 1.3548245178 2.2639882559
H 0.7448555579 -2.0339042231 3.6927737876
