20
CONF18
C 0.4576120166 -0.9914911253 0.0001868485
O 1.1730908644 -0.7084559575 -1.2115033783
C 2.0942649628 0.2928904171 -0.9498853629
O 2.8449962529 0.7322244361 -1.7869649321
C 1.9703164104 0.7030425394 0.4399707984
O 2.7433638190 1.6827903364 0.9563954898
C 0.9904570630 -0.0175316237 1.0151508002
O 0.5184981872 0.0498871963 2.2679030757
C -1.0473977284 -0.8700295921 -0.2411073950
O -1.6541018187 -1.2405782388 1.0066703512
C -1.4938806027 0.5297806254 -0.6422907451
O -2.9273170508 0.5838224976 -0.6593277021
H 0.6768487556 -2.0264746537 0.3012353340
H 3.3344206857 1.9688193033 0.2424949667
H -0.3168015139 -0.4522141418 2.2887280273
H -1.3356109614 -1.5881100855 -1.0266526982
H -2.5590841654 -0.8947582505 0.9742644366
H -1.0577113365 0.8103679942 -1.6088335685
H -1.1746256073 1.2573621409 0.1109950876
H -3.2373380419 0.1786560712 -1.4774297355
