22
CONF276
C 1.8913355291 -0.0592544172 1.1853060302
C 1.3630567680 0.4239538078 -0.1548786099
C 0.1235167236 -0.3476611359 -0.6303362384
C -1.1321814962 -0.0688044027 0.2050412188
C -2.2685772335 -1.0133050558 -0.1542751160
O -3.4184277669 -0.7816621699 0.6628100042
O -1.6154036527 1.2633549259 -0.0609136034
O -0.1218136125 -0.0296432069 -2.0087648367
O 2.4309245203 0.2339497932 -1.0935581837
O 3.0620452422 0.6635998904 1.5790019640
H 2.1011601873 -1.1384352984 1.1232139752
H 1.1506817009 0.1079354978 1.9717379718
H 1.1203629628 1.4983485475 -0.0859354435
H 0.3481461607 -1.4219313809 -0.6014981521
H -0.9097281341 -0.1827020477 1.2738237875
H -2.5158349627 -0.9022640394 -1.2197894201
H -1.9532002944 -2.0455288703 0.0250836268
H -3.6480776379 0.1512411493 0.5547643313
H -1.1902373723 1.8784685612 0.5491996804
H -0.5661232900 0.8332083189 -2.0097441371
H 2.0458603082 0.3686854146 -1.9719445440
H 3.7025161597 0.5684463087 0.8616557054
