33
CONF4
C 4.8154542784 -0.8950487138 0.0848857689
C 3.9687355690 0.1914728697 -0.0106567691
C 2.5799689701 -0.0008996324 -0.1004430066
C 2.0676524151 -1.3131137103 -0.0943245416
C 2.9212346738 -2.4173976497 -0.0011038029
C 4.2741171036 -2.1819770121 0.0853219509
F 5.1200703665 -3.2272234056 0.1729945731
C 0.6253517356 -1.5306744831 -0.1357522825
O 0.0694718723 -2.6097722023 -0.0965240120
N -0.1377912273 -0.3218101599 -0.1916000676
C 0.4937999297 0.9047331756 -0.2660310617
N 1.7642421486 1.1040291135 -0.2310846285
N -0.3261285452 2.0472931981 -0.3804438246
C -0.0922925603 3.2749257292 0.1695502164
N -1.0241318582 4.1192736206 -0.2088855427
C -1.8177604210 3.3555203173 -1.0210101326
N -1.4421114622 2.0963678934 -1.1600376783
C -1.5455958695 -0.4519612882 0.0348721816
C -2.0980296166 -0.1044575779 1.2661178005
C -3.4622870273 -0.2331104499 1.4975376928
C -4.2572976134 -0.7462746139 0.4817771800
C -3.7231147882 -1.1320854177 -0.7436333622
C -2.3634287838 -0.9796280083 -0.9559501679
Cl -5.9738187875 -0.9169078075 0.7614354932
Cl -1.0790253874 0.4991600682 2.5489371819
H 5.8904615276 -0.7720518986 0.1552654886
H 4.3542214674 1.2046175200 -0.0227308827
H 2.5154163715 -3.4221877870 0.0068138804
H 0.7471880947 3.4643664004 0.8225841942
H -2.6931863227 3.7400292811 -1.5272567048
H -3.8876078902 0.0502246209 2.4515720555
H -4.3635196522 -1.5378267476 -1.5167001677
H -1.9202579222 -1.2576051364 -1.9047755289
