41
CONF1
C 6.5388399348 0.2930711833 -0.3830718528
N 5.0867572799 0.2370357704 -0.3495695880
C 4.3076319452 -0.5549736674 0.4162011458
C 2.9889037486 -0.2274477362 0.1443526923
C 3.0980212158 0.8033414573 -0.8284962963
N 4.3728773734 1.0735163534 -1.1169161045
C 2.0785157265 1.5898510577 -1.5667849252
F 1.2130645533 0.7655454497 -2.2561311093
F 1.2808424359 2.3096875447 -0.6890017903
C 1.8805937822 -0.9525697841 0.8142266320
O 2.1244982503 -1.9286319178 1.5149231997
N 0.6237474257 -0.4542944045 0.5920711209
C -0.6104331431 -0.9566861921 1.0339268796
C -0.7530795112 -2.0322963072 1.9275358626
C -2.0218835608 -2.4737777379 2.2894506413
C -3.1840374568 -1.8805338431 1.7906405440
C -3.0339289672 -0.8061571737 0.9316985215
C -1.7676803078 -0.3410125500 0.5596267214
C -1.9807130072 0.7716320437 -0.4520543907
C -2.5039201177 0.0788495462 -1.7536599340
C -3.9157635377 -0.4412734255 -1.3392615670
C -4.0472305940 0.0104071035 0.1540646499
C -3.2892937550 1.3192211530 0.0816889862
C -3.6566033986 2.5585762374 0.3587742393
Cl -5.2479656668 2.9658089792 0.9460713684
Cl -2.5889952904 3.9258352694 0.1745145137
H 6.8793800982 0.2566321160 -1.4200478945
H 6.9348272873 -0.5636954382 0.1640256670
H 6.8914592825 1.2190791282 0.0803981308
H 4.7014053775 -1.2969859547 1.0942421224
H 2.5342781528 2.2918506814 -2.2711483000
H 0.5583828959 0.3774232734 0.0268344338
H 0.1290832558 -2.5102964677 2.3268645716
H -2.1001844959 -3.3039983008 2.9842414508
H -4.1653989244 -2.2440283192 2.0775731100
H -1.1779813647 1.4908388294 -0.6052864731
H -2.5741268625 0.8129562843 -2.5611688718
H -1.8287771644 -0.7197490018 -2.0706827373
H -4.6992715938 0.0297064481 -1.9394733724
H -4.0139727020 -1.5259191193 -1.4288081017
H -5.0618686156 0.0334619499 0.5476163045
