49
CONF53
C -5.5376867417 0.5645064530 -2.0669688757
C -4.1789456365 -0.1280843879 -1.9277130331
C -3.2449976575 0.2958786094 -3.0650216411
C -3.5517345177 0.1952199889 -0.5703928313
C -4.2959800223 -0.3158625853 0.6989599938
C -4.1392003004 -1.8586955044 0.5512170775
C -2.7210595439 -2.0130230878 -0.0681287574
C -2.2261774598 -0.5400559414 -0.2060347420
C -2.0309750040 -0.0288389332 1.1986361245
C -3.3132580693 0.1098019824 1.7594894505
C -3.4974127208 0.5775472244 3.0497714712
C -2.3655632250 0.9414200328 3.7884342315
C -1.0918906177 0.8145608321 3.2459469941
C -0.9109122012 0.3174347279 1.9449048105
N 0.4031399850 0.2723826290 1.4142992227
C 0.9741271330 -0.8221827964 0.8226180613
O 0.3984951520 -1.9050395469 0.6989712099
C 2.3464620006 -0.6223647326 0.3321434351
C 3.0332576373 0.5560189827 0.0597330012
N 4.2524206253 0.1996721745 -0.3911708881
N 4.4228821856 -1.1330685608 -0.4343119533
C 3.2695693405 -1.6410873700 -0.0015714208
C 3.0671306909 -3.1167619467 0.0758849091
F 2.5722420822 -3.5905130235 -1.1309635270
F 4.2681784749 -3.7584772743 0.2709150745
C 5.3286616280 1.0813070617 -0.8243311444
H -5.9789642185 0.3563015519 -3.0472745124
H -5.4247472889 1.6513820118 -1.9712465999
H -6.2439933765 0.2285262828 -1.3015746102
H -4.3399366290 -1.2101244918 -2.0067766969
H -3.0317613321 1.3702710910 -3.0052692821
H -2.2921014594 -0.2412051485 -3.0289811934
H -3.7062315006 0.0977207417 -4.0382667082
H -3.4075001083 1.2831751535 -0.5065665267
H -5.3204943107 0.0259270587 0.8549044447
H -4.9148145482 -2.2596719564 -0.1084444934
H -4.2331536335 -2.3589436316 1.5187428756
H -2.7619512260 -2.4900150980 -1.0522795175
H -4.4923952569 0.6862489348 3.4713841063
H -2.4768691891 1.3332783939 4.7947838084
H 2.7411362859 1.5941794753 0.1334468078
H 2.3714412433 -3.4192202057 0.8614583002
H 5.0085398414 2.1133637176 -0.6787217331
H 5.5453912909 0.9070040740 -1.8811733799
H 6.2235445616 0.8844102337 -0.2293928811
H -2.0418677184 -2.5918390497 0.5578705244
H -1.3790403315 -0.4063988326 -0.8785823686
H 1.0243178070 1.0134603313 1.7061639453
H -0.2204698717 1.1043019180 3.8264098999
