34
CONF6
C -0.3528140784 -0.2783701139 -2.7328090989
C -0.9271423512 0.0214519650 -1.3767608660
C -0.2128585091 0.0231321958 -0.2255799076
C -0.8243120489 0.3904062605 1.1370377926
C -2.3587653650 0.3141123080 1.0731926146
C -2.9258605648 1.0154606151 -0.1504878966
C -2.4010048313 0.3405578098 -1.4113809763
C -0.3813124446 1.8074608195 1.5485027928
C -0.3529384196 -0.6062051634 2.2115779097
C 1.2149565284 -0.2834039164 -0.1737443717
C 1.8525316297 -1.3005510131 -0.7834048168
C 3.2942352316 -1.5715290366 -0.6749087325
O 3.7775158386 -2.5342927683 -1.2556834646
C 4.1660774382 -0.6525953034 0.1600991207
H -0.6535387427 -1.2789890305 -3.0708072302
H 0.7359623996 -0.2339111868 -2.7562614554
H -0.7499765953 0.4290209046 -3.4692887990
H -2.7716684425 0.7355936324 1.9980288727
H -2.6555973553 -0.7433880802 1.0441217415
H -4.0209358664 0.9910704091 -0.1369668232
H -2.6365697539 2.0728144125 -0.1499389362
H -2.6099232873 0.9585357125 -2.2935809896
H -2.9435269191 -0.6030484736 -1.5841435079
H -0.7923242891 2.0564067782 2.5334413058
H 0.7080142565 1.8851866106 1.6194865840
H -0.7193476868 2.5592676350 0.8306355763
H 0.7235758868 -0.5372749474 2.3945235260
H -0.8664854562 -0.4019936116 3.1576652423
H -0.5769233471 -1.6351888516 1.9126799263
H 1.8043580154 0.3566121956 0.4825893583
H 1.3077877612 -2.0201165377 -1.3882218276
H 5.1945727310 -1.0105577987 0.1134955088
H 4.1209280785 0.3771339840 -0.2092040946
H 3.8333102522 -0.6428079969 1.2037697261
