53
CONF168
C -3.1717114010 -3.3587358502 -2.8730434945
O -2.9646863862 -2.3450071973 -1.8491630115
C -3.0936838837 -1.0804184050 -2.2519966988
O -3.3314568438 -0.7250572989 -3.3828445109
C -2.9630503815 -0.1062622668 -1.0600716783
C -4.2659873074 -0.1978141610 -0.2246889348
C -3.8910849551 -1.1464035119 0.8884853209
C -2.4988681712 -1.2926194693 0.9868465442
C -1.8907528146 -0.4925722888 -0.0599788864
N -0.7185791851 0.0317382345 -0.0045938712
N -0.4104045922 0.9357610423 -0.9795101684
C -1.3772907419 1.2721865756 -2.0423697951
O -2.7006179314 1.2052605842 -1.5304623257
C 0.7717937863 1.6357156429 -0.9136352635
O 1.1668205321 2.3193469416 -1.8452323019
N 1.5328343145 1.4533625223 0.2723188670
C 2.9307031195 1.2113858740 0.1317062359
C 3.3665293489 0.2637668873 -0.7933543010
C 4.7262856349 0.0309211320 -0.9579555765
C 5.6217254581 0.7443691562 -0.1769108579
C 5.2069927115 1.6771159058 0.7613243735
C 3.8470784823 1.9208365228 0.9062582856
O 7.0022983280 0.4581560831 -0.2886527935
C 7.6883744824 1.1917331760 -1.1927639385
F 7.6606829096 2.5177873747 -0.9242645158
F 7.2208893571 1.0442279851 -2.4539789765
F 8.9627664212 0.7855256146 -1.1673874808
C 0.9628302417 1.5102485018 1.5500109834
O 1.4504081782 0.9977655965 2.5342671635
O -0.1480191561 2.2618095687 1.5329976065
C -0.9546129538 2.1833951266 2.7343121504
C -1.9224543688 -2.0571670809 1.9972229017
C -2.7562898419 -2.6999278833 2.9050084714
C -4.1388051118 -2.5559106770 2.7821624737
C -4.7324302630 -1.7821539853 1.7865524341
Cl -5.1757993625 -3.3838580487 3.9334720501
H -2.4376100558 -3.2323601840 -3.6712517452
H -3.0319404060 -4.3100524692 -2.3629292927
H -4.1836818065 -3.2765560592 -3.2748707505
H -4.4814098641 0.7998540759 0.1759910086
H -5.1296287806 -0.5253733521 -0.8089710412
H -1.1961496411 2.2984648408 -2.3601908908
H -1.2484026613 0.5834523718 -2.8877963742
H 2.6459676491 -0.2953916945 -1.3816026334
H 5.0855569690 -0.7047127846 -1.6684177875
H 5.9364946166 2.2117151606 1.3590483935
H 3.5016865221 2.6599370155 1.6202808243
H -0.3964685556 2.5696754415 3.5895715965
H -1.2510290186 1.1461204476 2.9129757462
H -1.8275310737 2.8023023471 2.5318794437
H -0.8451088141 -2.1618131474 2.0718010359
H -2.3428832762 -3.3143606264 3.6963245644
H -5.8102908533 -1.6794090962 1.7280711204
