50
CONF44
C 3.5473244180 -2.2737534701 3.4206047575
C 3.4190366957 -1.9568075862 1.9189262102
C 3.0925710555 -3.2490601756 1.1457325275
C 4.7698518262 -1.4275984743 1.4234450202
C 2.2862849534 -0.9512755631 1.7018875498
C 2.4787760848 0.2879545685 1.0877773345
C 1.4203857749 1.1658869442 0.8622044625
C 0.1486972495 0.7920235023 1.2581211841
C -0.0809934194 -0.4154936378 1.9002010447
C 0.9863630936 -1.2747413262 2.1135248205
O -0.9523440448 1.6364622215 1.0190285724
P -1.4634662464 1.7715913454 -0.5018768572
O -0.5037849273 2.2979637294 -1.4893437334
O -2.7813935136 2.6233349316 -0.1966344829
C -3.4543140446 3.3751967163 -1.1621575001
C -3.5321195766 2.9823680457 -2.4919755590
C -4.2593377970 3.7721688046 -3.3777900655
C -4.9023926172 4.9249703419 -2.9386032260
C -4.8154853670 5.2949520836 -1.5993160860
C -4.0868934687 4.5222269829 -0.7025017732
O -2.1208404187 0.3339811261 -0.8603401917
C -1.3888091566 -0.8315103007 -1.1096842905
C -1.9977880653 -2.0159821823 -0.7131543682
C -1.3328720803 -3.2196935002 -0.9155065686
C -0.0719829986 -3.2359712153 -1.5054040422
C 0.5118490651 -2.0397038088 -1.9099761625
C -0.1431670711 -0.8252131060 -1.7269147666
H 3.7599120305 -1.3640621212 3.9909753050
H 4.3640476287 -2.9845555450 3.5872123663
H 2.6314183043 -2.7167322822 3.8213224838
H 2.1535954041 -3.6958001938 1.4846830879
H 2.9939127814 -3.0411828633 0.0755847156
H 3.8905136099 -3.9866007359 1.2861026891
H 5.0671970581 -0.5181846261 1.9556169363
H 4.7517326023 -1.2138309983 0.3499401442
H 5.5422577195 -2.1828619267 1.5981950665
H 3.4663963861 0.5895671488 0.7611445167
H 1.5716012758 2.1139238638 0.3590213984
H -1.0891808995 -0.6811746751 2.1982541534
H 0.7914146797 -2.2258101036 2.5976755173
H -3.0328279998 2.0831790631 -2.8344680218
H -4.3218714895 3.4763139840 -4.4197856220
H -5.4682393374 5.5323741741 -3.6365555341
H -5.3129980207 6.1926843736 -1.2472993254
H -4.0007676319 4.7920935923 0.3438429778
H -2.9746820492 -1.9774885159 -0.2439330869
H -1.8026077561 -4.1471185693 -0.6041570957
H 0.4494684170 -4.1754981780 -1.6534647889
H 1.4900228104 -2.0428582348 -2.3801218334
H 0.3065274857 0.1093460706 -2.0400611833
