42
CONF3
C 0.6420269189 3.2845059520 4.4941917642
C -0.5279348337 2.7793250016 3.9414929315
C -0.4843689467 2.0296807914 2.7677449626
C 0.7305143418 1.7762016832 2.1343717578
C 1.9022256626 2.2951797294 2.6934603959
C 1.8598853306 3.0415950328 3.8627897455
C 0.8318704023 0.9832487563 0.8470275930
C -0.4802370579 0.5407510135 0.2416588504
C -0.9632294731 1.1133591482 -0.9352868574
C -2.1243303972 0.6432178709 -1.5378293726
C -2.8048419077 -0.4150526677 -0.9487842139
C -2.3667927257 -0.9859352739 0.2410088323
C -1.2052636910 -0.5018625338 0.8282289660
Cl -4.2355231828 -1.0555951569 -1.7324055577
C 1.7217810958 -0.2696947566 0.9949656131
O 2.2030589692 -0.6334187379 2.0367433831
C 1.9426659795 -1.1049894668 -0.2798474465
C 1.7995468361 -0.3960076482 -1.6291766825
O 2.3713148540 0.6230393938 -1.9596027636
C 0.8449538268 -1.1717874479 -2.4534494562
C 0.4183701661 -0.9209697918 -3.7524262439
C -0.5405302628 -1.7698192277 -4.2937617889
C -1.0590229758 -2.8413986624 -3.5530780268
C -0.6223421442 -3.0946077860 -2.2572147179
C 0.3385658888 -2.2456190873 -1.7210945965
C 0.9580046502 -2.2979128099 -0.3738926569
O 0.7561779385 -3.1266023313 0.4807371116
H 0.6078758427 3.8673591992 5.4089278792
H -1.4832787268 2.9689280756 4.4205141707
H -1.4068040129 1.6502953197 2.3419371722
H 2.8558872127 2.1056406765 2.2099667623
H 2.7799217897 3.4332709391 4.2846888774
H 1.3470050417 1.6058276912 0.1019384286
H -0.4088433048 1.9210012984 -1.4045138866
H -2.4861067478 1.0788778601 -2.4617840352
H -2.9126660359 -1.8087288562 0.6874719252
H -0.8434109119 -0.9589809243 1.7452110969
H 2.9555824450 -1.5148780820 -0.1860326633
H 0.8203980420 -0.0813058155 -4.3097518685
H -0.9014192210 -1.6013058768 -5.3033582184
H -1.8147767270 -3.4784404188 -4.0006672779
H -1.0159104616 -3.9183400630 -1.6711200046
