39
CONF262
C -3.2085137448 0.8334704404 2.9734539559
C -2.1826684439 0.5484503090 1.8783700350
C -2.6378754064 -0.6192904124 1.0073669144
N -1.7226812500 -0.9400076596 -0.1035561645
C -0.5533383966 -1.7867427141 0.1954772336
C 0.7950239315 -1.1237898636 0.0038858874
O 0.9248369350 -0.0785214894 1.0030055188
C 2.0535712843 0.6685096523 0.8854612923
C 3.2416819435 0.3078253598 1.5329750691
Cl 3.2712757326 -1.1628469874 2.4727175574
C 4.3873841868 1.0901208477 1.4669628593
C 4.3334475815 2.2657083199 0.7296367954
Cl 5.7661295970 3.2687924901 0.6323294509
C 3.1805880816 2.6775425354 0.0741484446
C 2.0552482932 1.8684359865 0.1634534819
Cl 0.5836893185 2.3676978591 -0.6295220674
C -1.9382992217 -0.2994130431 -1.2733057306
O -2.7126126605 0.6354388962 -1.4351395600
N -1.1983183986 -0.7881134183 -2.4105874383
C -1.0258642692 -2.0903834713 -2.8567672026
C -0.3358449003 -1.9833853396 -4.0314006711
N -0.0716806622 -0.6567460273 -4.3237944539
C -0.6152744172 0.0320818810 -3.3466650112
H -4.1808377492 1.0961325110 2.5427207098
H -3.3504202422 -0.0429876215 3.6154204687
H -2.8844259529 1.6644502268 3.6062474501
H -2.0461266894 1.4313962077 1.2439889350
H -1.2086659772 0.3170523230 2.3209351260
H -2.7384381679 -1.5272140277 1.6130995748
H -3.6168694128 -0.3977571230 0.5729947832
H -0.5639574667 -2.7100263931 -0.3900523149
H -0.6450343009 -2.0793853036 1.2446674565
H 1.5783483887 -1.8764664032 0.1568253115
H 0.9129630154 -0.6868265502 -0.9937791913
H 5.2920073661 0.7894479806 1.9804987160
H 3.1533611216 3.6022180266 -0.4886645496
H -1.4489354639 -2.9390521409 -2.3439781756
H -0.0266996644 -2.7835840778 -4.6894179426
H -0.6161740190 1.1077686267 -3.2357525463
