42
CONF29
C -3.0713529205 -2.1437246636 0.4935841445
C -2.4661752972 -0.8847010706 -0.0242772559
C -3.1026601543 0.1581304946 -0.6291398083
C -2.1217607819 1.1922053365 -0.9474856290
C -0.8374630228 0.7443183636 -0.5493215047
C -1.0187511279 -0.6044739609 0.0239644916
C -0.1297779215 -1.4838959842 0.5487679223
C 1.3276206108 -1.4440272554 0.5340531728
C 2.0526453929 -1.0321415139 -0.5969671487
C 3.4396363395 -1.0531732794 -0.5979339779
C 4.1120660950 -1.4756053925 0.5466696569
C 3.4248571656 -1.9278037189 1.6657188154
C 2.0359162610 -1.9224332868 1.6492572425
S 5.9310158489 -1.5298082292 0.5450161335
O 6.3523750400 -2.2773865185 1.8126254658
C 6.1919800101 0.2544655794 0.8938531500
C 0.2478376276 1.6065672364 -0.6406691327
C 0.0725994200 2.8866355037 -1.1773973557
C -1.1908878280 3.2669554117 -1.5981480619
C -2.3138800571 2.4567948776 -1.4918169398
F -1.3465444429 4.5088324503 -2.1307766646
C -4.5540745142 0.3194491714 -0.9279034323
C -5.2737671091 1.3365757316 -0.0633637129
O -6.2203679521 1.9996388165 -0.4327470331
O -4.7736243389 1.3983248726 1.1853031854
H -2.8703857260 -2.2622023009 1.5650147903
H -4.1538301778 -2.1564815098 0.3545870519
H -2.6532123783 -3.0225544390 -0.0104474262
H -0.5483499180 -2.3511704364 1.0574285399
H 1.5203562276 -0.7291964022 -1.4922815920
H 3.9895587792 -0.7513448409 -1.4851202784
H 3.9744222834 -2.2872450232 2.5297864543
H 1.4861682969 -2.2813676693 2.5145225366
H 5.7776900131 0.8366562799 0.0663000797
H 5.6938765220 0.4954606563 1.8365610468
H 7.2718352483 0.4059616591 0.9640879714
H 1.2341505513 1.3157635863 -0.2999089687
H 0.9032457995 3.5776833755 -1.2667748274
H -3.2850255445 2.8210361550 -1.8117554663
H -5.0925176378 -0.6253079465 -0.7887773165
H -4.7143213732 0.6239123016 -1.9671720466
H -5.3011236209 2.0406780801 1.6911354205
