33
CONF281
C 7.2842783605 1.4099912993 3.0197262394
C 6.3166246095 0.6182441086 2.5632810263
C 4.9864429819 1.1730509700 2.2341698398
O 4.6443025316 2.3280942206 2.3418082043
O 4.1647662750 0.1871085274 1.7770755622
C 2.8375943087 0.6264535112 1.4171123371
C 2.1261843680 -0.6179514041 0.9082220722
C 0.7041187196 -0.3066879120 0.4976351099
C -0.0236456830 -1.5359489015 -0.1143786823
C -1.5642722357 -1.4359617833 -0.4136300555
C -2.0410600814 -0.2643564467 -1.3328201915
C -3.4730337867 -0.4907345749 -1.9308391842
C -4.1445715933 0.8151814288 -2.4708056517
F -5.2340446964 0.4786822456 -3.1748043720
F -4.5174966899 1.6138369940 -1.4657087870
F -3.3003032152 1.4801619554 -3.2720857786
F -3.3844645572 -1.3596099315 -2.9598860426
F -4.2910000278 -1.0052080977 -0.9841885059
F -2.0544324332 0.8750842289 -0.6029402320
F -1.1796238207 -0.1239222556 -2.3644445199
F -1.8995505236 -2.6047799752 -1.0197157973
F -2.2192944584 -1.3556427711 0.7630707769
F 0.1009509587 -2.5682559703 0.7645055772
F 0.6160150086 -1.8796388137 -1.2587115152
F -0.0251800767 0.1263252681 1.5708226726
F 0.6882277842 0.6939878895 -0.4364579244
H 8.2653457389 1.0182231968 3.2642652185
H 6.4596503573 -0.4471711781 2.4143473273
H 2.9063715888 1.4032115390 0.6501970481
H 2.3427367298 1.0526523518 2.2952392268
H 2.6561533158 -1.0257196399 0.0422010279
H 2.1028042789 -1.3848538901 1.6867567726
H 7.1032427211 2.4720549226 3.1548953383
