82
CONF69
C -5.4041585719 0.8738064048 -3.6217947742
C -4.5120948787 0.0002882579 -2.7804553015
C -4.1264827159 -1.2053151547 -3.2127419185
C -4.0851049316 0.6152311836 -1.4697505413
C -5.2557057715 1.1186728771 -0.5955219465
C -4.5921106511 1.3274567746 0.7646590507
C -3.6703733683 0.1002056825 0.9419321172
C -3.2322541725 -0.2602219572 -0.5197174892
C -1.7115018015 -0.1504439077 -0.7555609136
C -1.2046566447 1.3180293813 -0.7689704055
C 0.1086635263 1.5259799706 -0.0191676593
C 1.1284748763 0.4684913382 -0.4366342167
C 2.6078187441 0.8724607573 -0.0236943862
C 2.6879470368 1.5617688318 1.3570272697
C 4.1226908677 1.9222606367 1.7596201857
C 5.0774377801 0.7342529473 1.7710101957
C 5.0285228568 -0.0766729537 0.4490194837
C 3.5531521346 -0.3686086955 -0.0047078960
C 2.9580141200 -1.5468667225 0.8229533186
C 1.4579616727 -1.4859441710 1.1092931013
C 0.6369305632 -0.9751973429 -0.0749298907
C -0.9286043831 -1.0415128756 0.2480694408
C -1.3010172576 -0.6208067426 1.7140052815
C -2.4669556634 0.3776670883 1.8494714107
C -1.3880645019 -2.5066890454 0.0678450447
C 0.9511022906 -1.8714315619 -1.2951033825
C 5.8301455956 0.7177702019 -0.6074443072
C 5.8094555278 -1.3974649362 0.6040342140
O 4.7453512893 -0.0347124444 2.9480462159
C 3.0168814505 1.8862018049 -1.1190501796
C -4.4943129095 -1.0780018050 1.5013264759
O -5.0039932862 -0.8670917318 2.8261323786
H -6.3734270580 1.0281531236 -3.1332685559
H -5.5811467267 0.4353981061 -4.6070006659
H -4.9580614091 1.8675909522 -3.7525976899
H -3.4725951680 -1.8514864560 -2.6363992219
H -4.4574960148 -1.5773839714 -4.1788099461
H -3.5064621470 1.5119177650 -1.7374826037
H -5.7153674465 2.0309054461 -0.9868370293
H -6.0383800523 0.3515806176 -0.5361692813
H -3.9835932050 2.2402022978 0.7355385146
H -5.3106176394 1.4539378884 1.5827757284
H -3.5177848302 -1.3032944986 -0.6942140837
H -1.5244148536 -0.5695441531 -1.7523409519
H -1.0529328247 1.6292008482 -1.8108538593
H -1.9613878240 1.9966888750 -0.3632795912
H -0.0492660035 1.4976278490 1.0624925059
H 0.4785988824 2.5325337386 -0.2422414863
H 1.1401823617 0.4995906798 -1.5366121521
H 2.2527926905 0.9181665613 2.1281692817
H 2.0948636810 2.4828296279 1.3498656495
H 4.5239464750 2.6879055352 1.0887517160
H 4.1238397798 2.3676664358 2.7612815948
H 6.1091738129 1.1081812063 1.8862854433
H 3.6389471303 -0.7049524703 -1.0473653697
H 3.1941785923 -2.4816009831 0.3021282057
H 3.4576885246 -1.5986379554 1.7900149751
H 1.2958159529 -0.8425211972 1.9761800977
H 1.1172555918 -2.4855044371 1.4073867812
H -1.5349202282 -1.5286259518 2.2839630568
H -0.4479553914 -0.1750091101 2.2292400060
H -2.8020168428 0.3874339597 2.8936117490
H -2.1024720734 1.3880486917 1.6443308153
H -2.3878370478 -2.6638871965 0.4729627993
H -0.7222839721 -3.1915235574 0.6026718632
H -1.4118587153 -2.8038228598 -0.9844799972
H 0.8758829845 -2.9366296188 -1.0595403051
H 1.9677086931 -1.6839847740 -1.6461867303
H 0.2794553672 -1.6547224604 -2.1323007352
H 5.5821583563 1.7771495987 -0.6460194528
H 5.6667829646 0.2957811655 -1.6044441215
H 6.8997723999 0.6445595031 -0.3825721298
H 5.8601454708 -1.9114954022 -0.3630125133
H 5.3737050156 -2.0945380225 1.3217513106
H 6.8374401655 -1.1828938585 0.9197603405
H 5.3965335220 -0.7414210389 3.0337976078
H 2.1717534265 2.5369990888 -1.3642245313
H 3.3087366611 1.3641199041 -2.0365265978
H 3.8361392096 2.5425579825 -0.8301568958
H -5.3160381843 -1.3176420131 0.8107013727
H -3.8610131836 -1.9659068226 1.5800344020
H -5.7373294769 -0.2432604547 2.7720415042
