39
CONF592
C 8.4295387786 2.0115474152 1.2099510381
C 7.1953773514 1.5851203518 0.4180186773
C 7.1457166864 0.0737268900 0.1932837922
C 5.9826772166 -0.3939356734 -0.6858792064
C 4.5808566305 -0.0489890474 -0.1529043948
C 4.3300401436 -0.5318834669 1.2845663996
C 4.4457957402 -2.0406083358 1.4976959029
C 3.5635402964 -0.6047477621 -1.1435956473
O 2.1906870780 -0.3354651039 -0.7386462758
C 1.7235496720 0.8950323933 -1.0337955946
O 2.3389522580 1.7431940003 -1.6323541863
C 0.3475659791 1.0752677328 -0.4676156899
C 0.1125854196 0.5767628449 0.8106461716
C -1.0926496562 0.8029392082 1.4536058525
C -2.1090255505 1.5221507383 0.8186318569
C -1.8942555989 2.0011987950 -0.4861520270
C -0.6661628847 1.7810235853 -1.1270505370
Br -0.4069205169 2.3602250128 -2.9119794938
Br -3.2739172395 2.9442474299 -1.3744121857
Br -3.7446447669 1.8338202295 1.7099958434
Br -1.2904559051 0.1028638543 3.2076567594
H 8.4480205932 1.5300055803 2.1937868721
H 9.3492333927 1.7296777965 0.6861196749
H 8.4512451609 3.0939524981 1.3670188858
H 6.2936731945 1.9161522807 0.9476957054
H 7.1814516929 2.0944225580 -0.5547912438
H 8.0833169646 -0.2429503590 -0.2822595357
H 7.1170176840 -0.4382978047 1.1643947298
H 6.0606441174 -1.4796848768 -0.8324415608
H 6.0924048316 0.0560805030 -1.6819422868
H 4.4714870909 1.0425221957 -0.1624712867
H 3.3327702961 -0.1985542532 1.5955588306
H 5.0318008029 -0.0159532413 1.9497807685
H 3.7051180590 -2.5927302432 0.9104424959
H 5.4376100176 -2.4143870089 1.2248092737
H 4.2781128232 -2.2920025974 2.5489139935
H 3.6124528324 -1.6950583825 -1.2015431529
H 3.7250414164 -0.1802634538 -2.1389451218
H 0.8903960407 0.0153717362 1.3107248837
