51
CONF55
C 2.9298481902 -0.1564941452 3.2780810898
C 4.1446904816 -0.2111898886 2.3911871593
C 5.4193922576 -0.2628964691 2.8538155673
C 5.8799050415 -0.3072276309 4.2699167398
O 6.5854617897 -1.5415946133 4.5519880878
C 3.9351856188 -0.2010534804 0.9568252486
C 2.7318633369 -0.1214160277 0.3283565302
C 2.6012682498 -0.1146489573 -1.0967774264
C 1.4444106392 -0.0312154476 -1.8309522553
C 1.5387190560 -0.0414272242 -3.3335658407
C 0.1454473447 0.0700885062 -1.2119527485
C -1.0234319123 0.1523525853 -1.9039992103
C -2.3937771660 0.2289029982 -1.4284115103
C -3.3919604926 0.1015627844 -2.3557402081
C -3.1528897385 -0.0025534517 -3.8433073658
C -4.8486910423 0.0052327123 -1.9989069725
C -5.1069231447 -0.2102337336 -0.5168625393
C -4.2092712831 0.7311240119 0.2669670617
C -2.7075847389 0.4358199951 0.0645114301
C -1.9649891230 1.6690330391 0.6214942305
C -2.3356861397 -0.8132536938 0.8887780484
H 2.2392968726 -0.9686353984 3.0260264559
H 3.1788950055 -0.2375795222 4.3355727712
H 2.3857582840 0.7830165359 3.1283719189
H 6.2213500838 -0.3099060161 2.1164434193
H 6.6177167669 0.4826686566 4.4521599561
H 5.0593234251 -0.1684112630 4.9825402809
H 5.9795499496 -2.2633179757 4.3385707570
H 4.8338265167 -0.2578105955 0.3415596722
H 1.8319700316 -0.0581631205 0.9339983940
H 3.5365625940 -0.1830171819 -1.6521090405
H 1.1170204653 0.8742380994 -3.7654066104
H 2.5783271533 -0.1250205501 -3.6567296254
H 0.9766799560 -0.8805945754 -3.7607335977
H 0.1311913384 0.0653462458 -0.1310922835
H -0.9276026394 0.1155884611 -2.9834616555
H -2.3871660375 0.6858731534 -4.2096840332
H -4.0806164444 0.2158340319 -4.3799765309
H -2.8491601270 -1.0182845784 -4.1282763627
H -5.3489027135 0.9259617820 -2.3416309254
H -5.2933327956 -0.8007415869 -2.5995933911
H -6.1615535382 -0.0283661366 -0.2831781234
H -4.8957939132 -1.2521577611 -0.2485203173
H -4.4254492585 0.6887092826 1.3413660329
H -4.4130329310 1.7604357405 -0.0608136715
H -2.1496145059 2.5430406813 -0.0124320957
H -2.3468978630 1.8901009790 1.6247073152
H -0.8861476818 1.5309809657 0.7012479705
H -1.2808567056 -1.0775807568 0.7910113404
H -2.5405092204 -0.6300332726 1.9499500833
H -2.9218213089 -1.6810872036 0.5717740909
