45
CONF253
C 6.9098747162 0.9909231462 3.1842705844
C 5.4941277552 0.5131263307 2.8692018421
C 5.3325059231 0.0610816908 1.4183079385
C 3.9218287830 -0.4275622420 1.0926432839
C 3.7651504885 -0.8637700481 -0.3649044009
C 2.4078355162 -1.4927158623 -0.6902680206
C 1.2245800084 -0.5392498078 -0.5282143970
C -0.1043419431 -1.1841428340 -0.9626144434
C -1.3057154996 -0.2929859754 -0.7787258508
C -1.7915786203 -0.1037154660 0.5149703159
N -2.8464336877 0.7387597240 0.6530694495
C -3.4397842655 1.3865508077 -0.4308711553
N -4.4346310842 2.1512630098 0.0382212868
C -4.3919582588 1.9281619664 1.3669019780
N -3.4565840844 1.0817357419 1.8166933213
N -3.0158384749 1.1921028571 -1.6776944878
C -1.9781097284 0.3678734851 -1.8414830083
C -1.5517655210 0.1843716498 -3.2777327661
C -0.3549030073 1.0647327271 -3.6589543134
N -1.3567918790 -0.7222704383 1.6439538685
H 7.1873149659 1.8402217962 2.5506997364
H 7.6403288836 0.1939858471 3.0081180423
H 7.0043169802 1.3070472549 4.2274279659
H 4.7772469734 1.3179292744 3.0786335517
H 5.2277928643 -0.3167120104 3.5371957976
H 6.0535522010 -0.7405266804 1.2054576461
H 5.5930965051 0.8920520678 0.7478694853
H 3.2078702555 0.3733252200 1.3252376426
H 3.6685427828 -1.2705710368 1.7522901423
H 4.5550662727 -1.5879120954 -0.6034600628
H 3.9321892516 0.0000831451 -1.0230655549
H 2.2547203034 -2.3753849347 -0.0527138998
H 2.4217323168 -1.8616929818 -1.7245881486
H 1.1569976906 -0.1961123128 0.5117157006
H 1.3942363701 0.3673159003 -1.1218430958
H -0.0188882082 -1.4826332148 -2.0104259915
H -0.2495182664 -2.1212114610 -0.4043636931
H -5.0748967915 2.4011974545 2.0620007862
H -2.4112471000 0.4571372863 -3.8945999800
H -0.5739846949 2.1147056423 -3.4444440444
H -1.7026919468 -0.3527240588 2.5173340254
H -0.4367445948 -1.1247984059 1.6432981804
H 0.5462546121 0.7857440718 -3.1057343461
H -1.3229477947 -0.8670593964 -3.4818973731
H -0.1359824788 0.9711367148 -4.7267080194
