48
CONF11
C -5.3256936577 -0.0314271649 0.5707409765
C -3.9588546377 0.1962763590 -0.0932865956
C -3.2107161611 1.2864092335 0.6865876364
C -4.1728033291 0.6653864114 -1.5400603134
C -3.1908441778 -1.1479831075 -0.0537860443
C -1.6989279289 -1.0169461669 -0.4640263294
N -1.1496997805 -2.2886743767 -0.9448825675
C -0.7917545732 -3.3752497485 -0.2273703378
N -0.3764730766 -4.3383024131 -1.0407890140
C -0.5110503614 -3.7710393129 -2.2731383356
N -0.9757096842 -2.5281237336 -2.2667109345
O -1.0006524131 -0.6299167200 0.6988897781
C 0.2699955166 -0.1085031368 0.5750965027
C 0.8426572230 0.3324512104 1.7686671669
C 2.1180457828 0.8735062481 1.7629834637
C 2.8549063030 0.9863229283 0.5737700025
C 2.2577110521 0.5365994811 -0.6083215630
C 0.9770877102 -0.0104079625 -0.6218712916
C 4.2179122591 1.5560812500 0.5722383298
C 5.2130357097 1.0359022064 -0.2682157490
C 6.4962208470 1.5727834187 -0.2706750992
C 6.8136807075 2.6391921175 0.5681462982
C 5.8346392711 3.1643977315 1.4091910645
C 4.5504286923 2.6296604999 1.4112546494
O -3.8637645765 -2.0557685111 -0.9200981787
H -5.9065743269 0.8964319183 0.5505571703
H -5.2043908867 -0.3341549831 1.6169692469
H -5.8949070249 -0.8053122481 0.0489102990
H -3.8384837117 2.1824668781 0.7298596716
H -2.9933838366 0.9698179210 1.7117293574
H -2.2673996777 1.5649362164 0.2064857893
H -3.2260286899 0.8443944886 -2.0608314922
H -4.7500467932 -0.0629380290 -2.1146460283
H -4.7252564496 1.6107403519 -1.5318956140
H -3.1931191617 -1.5253098810 0.9805951245
H -1.5713233420 -0.3028602410 -1.2847004125
H -0.8400865353 -3.4110888240 0.8529987820
H -0.2576335176 -4.2788278001 -3.1951677660
H 0.2799293909 0.2372068444 2.6915721729
H 2.5585843274 1.1926152601 2.7023104512
H 2.7915703765 0.6268419088 -1.5490931824
H 0.5598274932 -0.3480913181 -1.5627625071
H 4.9853303626 0.1883772663 -0.9075143105
H 7.2539669765 1.1495571744 -0.9230923136
H 7.8154927799 3.0568971447 0.5669362493
H 6.0687301216 4.0009255321 2.0606442366
H 3.7903038453 3.0641620922 2.0534513527
H -3.6544764469 -2.9573171261 -0.6476501836
