47
CONF2
C 2.6627211099 -1.4555980503 -4.1866602049
C 3.2277524410 -0.9755329317 -2.9110384051
C 2.6875748864 -0.6484878233 -1.6928895297
C 3.8144088724 -0.2542489068 -0.9073537863
N 4.9338763948 -0.3339338610 -1.5899376751
O 4.5617776914 -0.8061949929 -2.8591793791
C 3.8536846675 0.2217113593 0.4853090723
C 4.5176867535 -0.5110115655 1.4716758790
C 4.5703229753 -0.1261933466 2.7988471445
C 3.9315885655 1.0521998484 3.1672193534
C 3.2583294987 1.8263927755 2.2263887287
C 3.2292857089 1.4051542755 0.9046937307
Cl 2.3994989241 2.3951269062 -0.2776993215
F 5.1158023697 -1.6644316739 1.1107471547
C 1.2529305880 -0.6783306224 -1.3629962399
O 0.3816155616 -0.5551140602 -2.2280432673
N 0.9434754583 -0.8455078692 -0.0488535126
C -0.4024497237 -0.7632724387 0.4205461245
C -1.2321950729 0.5567080500 0.2468514156
N -2.2478339928 -0.2300071193 -0.4616962340
C -1.5544470023 -1.4296402068 -0.3727009531
O -1.8303637746 -2.5500514430 -0.7333464529
C -3.6366319965 0.0454683684 -0.1821280073
C -3.7070839819 0.4085332503 1.3482176732
S -2.0979944568 1.3215572965 1.6793108835
C -3.7620315587 -0.8829263806 2.1643930991
C -4.8704298696 1.3229270052 1.7164932597
C -4.1372078690 1.1716984051 -1.0739573521
O -3.4454523332 2.0697655945 -1.4994933175
O -5.4518808624 1.0483317570 -1.3171047359
H 2.4769846263 -0.6074910559 -4.8554888354
H 3.3634902123 -2.1349555289 -4.6776950820
H 1.7126574560 -1.9587411300 -4.0061333509
H 5.0967870333 -0.7430386241 3.5179624203
H 3.9579164426 1.3756942734 4.2020376331
H 2.7667010787 2.7479411411 2.5137042932
H 1.6765251396 -1.0102087218 0.6247098022
H -0.4407074393 -1.1073740927 1.4577570398
H -0.7453297333 1.3298000325 -0.3519083363
H -4.2363325052 -0.8520729716 -0.3636071464
H -3.6852016609 -0.6533505634 3.2301679102
H -2.9503966162 -1.5679404510 1.9049567155
H -4.7164277968 -1.3907398314 1.9830862101
H -4.8427000229 2.2685728301 1.1686107074
H -5.8163541919 0.8152287440 1.5027687544
H -4.8408066055 1.5444112165 2.7869511548
H -5.7431358870 1.8091726309 -1.8506958274
