33
CONF6
C -5.4427770288 -0.0436830924 0.5876919199
C -4.2323931593 0.8487961972 0.3319858148
C -3.8588770155 0.9718354633 -1.1410581726
S -3.2992283772 -0.6100109489 -1.9246606948
C -1.8151098714 -0.9161563295 -0.9711674120
C -1.8246192937 -1.9140338871 0.0203781653
C -0.6951184234 -2.2012759865 0.7776983731
C 0.4608077258 -1.4627536356 0.5371807644
C 0.4539304968 -0.4613655008 -0.4640826672
C -0.6602858548 -0.1749015427 -1.2357455035
N 1.7373180523 0.0618978447 -0.4525296989
C 2.4147488887 -0.6265989592 0.5171715199
N 1.7085275728 -1.5412161648 1.1368004926
N 3.7415137817 -0.3811767387 0.8232036954
C 4.5358429947 0.5571115507 0.2141223824
O 4.1836487000 1.3068761647 -0.6774483725
O 5.7720907221 0.5227863535 0.7559761106
C 6.6976529056 1.4741569109 0.1870859394
H -6.3291625922 0.3403546579 0.0706098534
H -5.6721222629 -0.0966521916 1.6558955527
H -5.2601789614 -1.0594009783 0.2253699677
H -3.3640310968 0.4776815218 0.8899896628
H -4.4319932268 1.8617234219 0.7077732707
H -3.0680575954 1.7156869478 -1.2838967762
H -4.7233665381 1.2825928431 -1.7402316523
H -2.7430760771 -2.4657914908 0.1877230345
H -0.7072208842 -2.9739787122 1.5384014744
H -0.6502594850 0.5758799109 -2.0185782937
H 2.1455422256 0.7919195132 -1.0173946133
H 4.1323548580 -0.9558567328 1.5548204463
H 6.3316494293 2.4934303558 0.3319547414
H 6.8307501834 1.2827708563 -0.8803875338
H 7.6315007364 1.3193526849 0.7260693848
