36
CONF1
C -3.5054853855 -0.6177150271 1.7217198287
C -2.1367037983 -1.2725865869 1.7371776031
C -2.1702323672 -2.7419860465 1.3708654917
O -1.2885432416 -0.6305101520 0.7215230744
C -0.6444551360 0.4921123986 1.0773843038
O -0.7708404496 1.0262528169 2.1713433070
C 0.1770624203 1.0481772202 -0.0133721174
C 0.7625466340 0.1888244654 -1.0585446638
O 1.0476865476 0.5838237613 -2.1812538868
O 1.0045280025 -1.0591811144 -0.6276711053
C 1.5872363333 -2.0052934420 -1.5912918570
C 3.0957729476 -1.8402753990 -1.5910363577
C 1.1346500912 -3.3784994170 -1.1392518527
C 0.4048819412 2.4077958189 -0.0560045269
S 1.2754231765 3.1848745572 -1.3722144540
C 1.4587905839 4.8112930083 -0.5306436387
C 0.1978399592 5.0476835021 0.2621852952
S -0.1512563729 3.5044012423 1.2019305733
H -3.4330291115 0.4480516842 1.9520842594
H -4.1442853258 -1.0919194652 2.4731080361
H -3.9744028879 -0.7417721929 0.7402628245
H -1.6534605170 -1.1266874198 2.7078612129
H -2.7860828721 -3.2817240769 2.0960933504
H -2.6041663845 -2.8817702851 0.3756969606
H -1.1640883043 -3.1697726480 1.3821853745
H 1.1751546671 -1.7662242794 -2.5761785890
H 3.5390640068 -2.5412179516 -2.3049376450
H 3.4993496755 -2.0566804594 -0.5966926636
H 3.3797222287 -0.8255152134 -1.8803743945
H 1.5309430322 -4.1339903101 -1.8238467579
H 0.0435742020 -3.4484561001 -1.1372672936
H 1.5064350978 -3.5937443782 -0.1325048140
H 1.5949921360 5.5623722746 -1.3143936303
H 2.3455317374 4.7815289664 0.1093296220
H 0.3221475376 5.8479697805 0.9976709915
H -0.6563013967 5.2703603885 -0.3840184576
