75
CONF43
C 5.1153257536 2.8582121275 -0.8748581632
C 6.0049615279 1.9323772842 -1.7064777589
C 7.3370017878 2.6114830522 -2.0334798792
C 6.2054744336 0.5406934291 -1.0419717090
C 6.8485256535 0.6133043472 0.3419004125
C 4.9116783858 -0.2289268372 -1.0654803614
C 4.2841703692 -0.7957669384 -0.0342834269
C 2.9959533956 -1.5697649582 -0.1232726275
C 3.2631358924 -3.0327020013 0.2620181618
C 1.9323674512 -0.8862726453 0.7594687134
C 1.6951377146 0.5913184404 0.3231921481
C 0.2005500888 0.9070836614 0.5748584036
C -0.2754722171 -0.2755595101 1.4128374508
C -1.7345969758 -0.5608572121 1.5922906032
C -1.9569161400 -1.7409634878 2.5029245806
C -1.1660406659 -2.9774056769 2.0352675437
C 0.3176370158 -2.6709396487 1.7929829269
C 0.5045220231 -1.4953787225 0.8242368437
C -0.0043640817 -1.8476524251 -0.5805304134
C -2.7044385790 0.1616893762 0.9887741157
C -4.1305991716 -0.0533935111 1.0963623787
C -5.1073826216 0.6415932710 0.4686810811
C -4.8697876365 1.7362758308 -0.5348793479
C -5.4033409617 1.2863611955 -1.9069290205
O -4.6176769670 0.1890000498 -2.4090990587
C -6.8863314475 0.9236655215 -1.8114004422
C -7.1471700407 -0.1329613709 -0.7345273923
C -6.5613914669 0.2613602054 0.6407789455
C -7.3838555356 1.3739519276 1.3111358487
H 4.8839125774 3.7712470086 -1.4334341665
H 4.1711396253 2.3714370109 -0.6094915482
H 5.6165530518 3.1560891436 0.0527873297
H 5.4905299167 1.7393291470 -2.6590588267
H 7.9891598229 1.9495726573 -2.6139545232
H 7.1687402409 3.5215177067 -2.6191330870
H 7.8714889184 2.9022422772 -1.1225805341
H 6.9017912652 0.0005926742 -1.7045349927
H 7.7938647457 1.1616133688 0.3065064953
H 6.1945444039 1.1110170113 1.0651337248
H 7.0603972732 -0.3911024569 0.7218691798
H 4.4514404052 -0.3116961898 -2.0536134487
H 4.7129799588 -0.7319813552 0.9675684898
H 2.6516100271 -1.5385999573 -1.1664179346
H 3.5105517105 -3.1157426499 1.3269745401
H 4.1073863411 -3.4255000034 -0.3137021229
H 2.3968584759 -3.6680174717 0.0634492379
H 2.3189428769 -0.8891970154 1.7905728179
H 2.3508431726 1.2653937756 0.8820193371
H 1.9531417625 0.7166180857 -0.7341880549
H 0.0484839811 1.8630328114 1.0853968303
H -0.3453362085 0.9539642423 -0.3731531063
H 0.1425535344 -0.1464893955 2.4270428127
H -1.5966810522 -1.4653803086 3.5062046299
H -3.0146782027 -1.9946445933 2.6024983277
H -1.6189332734 -3.3665496562 1.1153712528
H -1.2591251227 -3.7688316508 2.7879037936
H 0.8127653071 -3.5738799071 1.4231503292
H 0.7934559061 -2.4101101373 2.7494578702
H -1.0900648387 -1.9809669307 -0.5912237255
H 0.4540857863 -2.7768874392 -0.9348545743
H 0.2369386004 -1.0621826958 -1.3028977791
H -2.3811839222 0.9874920762 0.3610883804
H -4.4591566433 -0.8558044616 1.7550335296
H -3.8138052308 1.9987235203 -0.6272785241
H -5.4102751117 2.6460389392 -0.2430583092
H -5.2650878756 2.0930588341 -2.6355346100
H -4.4961665401 -0.4343413872 -1.6780358959
H -7.4492735287 1.8401071080 -1.5931453030
H -7.2316078782 0.5621774707 -2.7866331094
H -8.2248221288 -0.3121002520 -0.6375670202
H -6.6959740487 -1.0839040472 -1.0459021887
H -6.6069863427 -0.6205177156 1.2918895234
H -7.4269196257 2.2819718493 0.7028564064
H -8.4117850614 1.0323659046 1.4729044857
H -6.9533723369 1.6390002697 2.2820759619
