45
CONF122
C -1.7220846967 -2.3265240253 1.1875863393
C -2.2409630753 -1.7985279304 -0.1113792018
C -1.8123892557 -0.6728223413 -0.6922403576
C -2.3506745966 -0.1680789892 -1.9673089430
C -1.4542519053 0.2479993471 -3.1683988481
C -2.2837893689 1.2714562909 -2.3892297812
C -1.6255928168 2.3098642001 -1.5089680167
C -3.4750492011 1.8155787162 -3.1513891509
C 0.0121385927 0.1351723798 -3.1837533820
O 0.6592910750 -0.1082926761 -4.1884932992
O 0.5869604911 0.3003542206 -1.9708783495
C 2.0227075135 0.0942518409 -1.8976420135
C 2.3274470054 -0.0317732723 -0.4384051345
C 2.8183269372 1.0284974253 0.3157943580
C 3.0285236920 0.9070348056 1.6814910864
C 2.7534650794 -0.2721591234 2.3655826257
C 2.2547219336 -1.3280131409 1.6104032276
C 2.0490863137 -1.2115517269 0.2440456490
F 1.5519365256 -2.2622846436 -0.4304766216
F 1.9530901175 -2.4963204940 2.2064965733
C 2.9338585444 -0.3546666783 3.8638227951
O 1.9149933554 0.3587910066 4.5605726536
C 0.6305262301 -0.2566113483 4.4378147785
F 3.5069012906 1.9668117614 2.3561982249
F 3.0905873553 2.2026186502 -0.2791123322
H -2.5258453656 -2.4227313504 1.9278640425
H -0.9477733788 -1.6722719498 1.6006256103
H -1.2933104745 -3.3283047292 1.0598336017
H -3.0149683436 -2.3881341280 -0.6052573211
H -1.0379143653 -0.0952120506 -0.1961548113
H -3.2314457084 -0.7084031201 -2.3095244467
H -1.8608805793 -0.0121450062 -4.1402887984
H -1.2918415127 3.1558923196 -2.1197329384
H -0.7664809602 1.9304272166 -0.9587363591
H -2.3601460508 2.6850382973 -0.7878145519
H -4.2266027743 2.1913666414 -2.4481225542
H -3.9408550854 1.0452769722 -3.7724777117
H -3.1697386920 2.6449044887 -3.7991507615
H 2.2879766357 -0.8169530895 -2.4386575879
H 2.5406529754 0.9445335912 -2.3459510526
H 3.8791852401 0.1165222350 4.1432410344
H 2.9545997106 -1.4065277416 4.1756860361
H 0.2730892799 -0.2394833429 3.3984813813
H 0.6581134611 -1.2969280516 4.7917401152
H -0.0555803331 0.3223282467 5.0589313145
