40
CONF63
C 2.4532358375 -2.7180812959 -0.2587301605
O 2.8744879906 -1.4544328602 -0.8406544371
C 3.7015420998 -0.7140030992 -0.0869756187
O 4.1018250951 -1.0343195656 1.0096947090
C 4.0701525785 0.5587365724 -0.8294772506
S 4.4028676627 1.9857899112 0.2483200310
C 2.7834338646 2.3600766469 0.8819849618
C 1.6485593936 1.5918997460 0.6190618378
C 0.3884628956 1.9156764746 1.1425617313
C 0.3136884342 3.0433190127 1.9682026888
C 1.4117460710 3.8288145262 2.2562923632
C 2.6399881018 3.4812814340 1.7094965099
Cl 4.0367097914 4.4745678718 2.0818482109
F -0.8819859367 3.3850227360 2.4987905578
N -0.7358258004 1.1234014866 0.9599106201
C -1.1098006212 0.7302489365 -0.2006018498
N -2.1584933628 -0.1433854336 -0.3696763481
N -2.3251243971 -0.5740599280 -1.6958491834
C -1.6153582535 0.1030204763 -2.6348397053
O -1.7306948194 0.0112643049 -3.8425252112
S -0.4462939265 1.2108206500 -1.7980802585
C -3.6262858718 -1.1906065133 -2.0051629923
C -3.8982190340 -2.3240810905 -1.0262956878
C -3.7833300900 -1.8114803219 0.4069986966
C -2.4130464686 -1.1934203056 0.6421397809
H 3.3224520027 -3.3523084739 -0.0723312861
H 1.7962533714 -3.1692089331 -1.0005532953
H 1.9152925188 -2.5331254452 0.6739228178
H 3.3238926424 0.8013258789 -1.5905752429
H 5.0219376820 0.3749655699 -1.3430779620
H 1.7133908469 0.6960901370 0.0153272173
H 1.3054733401 4.6993097313 2.8933136342
H -4.4055192201 -0.4188752622 -1.9353702200
H -3.5635770763 -1.5430197981 -3.0357083220
H -4.9009343434 -2.7159946071 -1.2203725855
H -3.1799723376 -3.1352138768 -1.1953022047
H -4.5607594954 -1.0629610512 0.6021232308
H -3.9175406247 -2.6276325346 1.1231045873
H -1.6201693919 -1.9523572023 0.5699223258
H -2.3524623450 -0.7070646261 1.6158483084
