30
CONF9
C 4.1800441247 -0.2405054267 -0.6490433852
C 3.2465611069 -0.0278422325 -1.8420063601
C 1.9813348634 0.7663807127 -1.5029108922
C 1.0468784067 0.0670586594 -0.5145246044
C -0.2442773574 0.8482457276 -0.2682663586
C -1.1893227463 0.1762570883 0.7237153730
C -1.7536440599 -1.1880778043 0.2407128382
C -3.2345353213 -1.2369581111 0.7052623917
C -3.4011314911 -0.0317377049 1.6471760242
C -2.4421326927 1.0022465734 1.0543985621
H 3.7135059889 -0.8563577960 0.1262332438
H 5.1040699779 -0.7409601945 -0.9564323621
H 4.4526701614 0.7191441612 -0.1942392994
H 2.9578095054 -1.0015456436 -2.2608064607
H 3.7933412242 0.4990743194 -2.6340779569
H 2.2680241092 1.7474490804 -1.0970465850
H 1.4255546803 0.9649184045 -2.4294539482
H 1.5576328598 -0.0825978870 0.4460088053
H 0.8051294412 -0.9346035191 -0.8974169517
H -0.7757714434 0.9876003432 -1.2218243625
H 0.0105035087 1.8534708811 0.0975049050
H -0.6415663309 0.0142247841 1.6639330529
H -1.1735428605 -2.0225379881 0.6468043594
H -1.6876622163 -1.2583377456 -0.8515403879
H -3.4963517625 -2.1854043907 1.1842207604
H -3.8997942565 -1.1158488702 -0.1569942412
H -3.0725308035 -0.2942466194 2.6610453041
H -4.4368391518 0.3173238956 1.7118284904
H -2.8658216977 1.4139886396 0.1267769988
H -2.2281364759 1.8401786686 1.7266213501
