46
CONF46
C -0.4958092260 2.8351419740 0.6107904367
C -1.6356730941 2.0722188102 -0.0593512056
C -1.2991453311 1.6826384508 -1.4977093689
C -2.3884589801 0.8995638422 -2.2037746601
O -2.4549558131 -0.4661064536 -1.6730942328
C -3.4212659987 -0.7736402451 -0.8082949528
O -4.2979646866 -0.0280174108 -0.4199946753
C -3.3711322516 -2.2422561125 -0.3806410061
C -4.3972644516 -3.0313066777 -1.1824728223
O -2.1032739911 -2.8592016165 -0.6187647081
C -1.0138280532 -2.4037240101 0.0711838316
C 0.2166296125 -2.9221697534 -0.3456491877
C 1.3882315676 -2.5221847467 0.2794781383
C 1.3189105010 -1.6001593951 1.3160816851
C 0.1093263988 -1.0839270195 1.7469245355
C -1.0705223404 -1.4909618713 1.1264908958
O 2.4965464523 -1.2245799911 1.9800572183
C 3.1788538584 -0.1564987932 1.4956539629
C 4.3226180873 0.2236469472 2.2126191815
C 5.1026367630 1.2903780745 1.8387584975
C 4.7345061235 2.0197349461 0.6953091335
C 3.5988617748 1.6559139901 -0.0387142526
C 2.8284816180 0.5736005764 0.3596739359
C 5.5204948252 3.1291845348 0.2883470444
N 6.1619712826 4.0354756912 -0.0457391900
F 4.6535836773 -0.4912695127 3.3065757028
H -0.2551626260 3.7493335500 0.0566414823
H -0.7554159330 3.1184766427 1.6354357867
H 0.4107556230 2.2210214570 0.6517122225
H -1.8596182269 1.1713994095 0.5231519350
H -2.5487802326 2.6808095931 -0.0573775190
H -1.1211079806 2.5896355561 -2.0907399603
H -0.3672093692 1.1014338330 -1.5248528215
H -3.3686487363 1.3713018006 -2.0971084681
H -2.1571039829 0.7622658422 -3.2621791904
H -3.6250781995 -2.2799010761 0.6860842328
H -4.1551632372 -2.9966143555 -2.2483634219
H -4.3975105242 -4.0709439915 -0.8468365062
H -5.3917815723 -2.6082542443 -1.0255681623
H 0.2399452519 -3.6340936033 -1.1638522939
H 2.3499606190 -2.9122345331 -0.0374076800
H 0.0840949649 -0.3666697814 2.5608261620
H -2.0111840936 -1.0865031905 1.4801022933
H 5.9772053725 1.5526942005 2.4229202697
H 3.3196804251 2.2219088306 -0.9199662914
H 1.9497644562 0.2934397213 -0.2093432884
