38
CONF26
C 4.9527800149 0.7902082288 -1.4983742618
C 3.6892871736 0.1614628321 -1.0172795852
N 2.6575237607 0.1052049578 -1.8627731261
C 1.5473669911 -0.4560328945 -1.3504570755
N 1.4162706756 -0.9432922462 -0.1193088896
C 2.5147464120 -0.8180244053 0.6375259261
N 3.6718005043 -0.2849119786 0.2523083843
O 2.3686317546 -1.2915177967 1.8688778055
C 3.5075305728 -1.2018124730 2.7629720684
N 0.4751898514 -0.5062814368 -2.2164432885
C -0.8387929520 -0.9451341304 -2.0368139039
O -1.6634070263 -0.7852902310 -2.9220848755
N -1.1001233160 -1.5642954168 -0.8315600962
S -2.6938623288 -1.8878820729 -0.3357776270
O -2.5664705240 -2.3012698747 1.0631045367
O -3.3114706434 -2.7942002732 -1.3054003512
C -3.5642218526 -0.3287141292 -0.4614829230
C -3.2588411485 0.8460772130 0.2068594776
S -4.4300205710 2.0659226276 -0.1900491931
C -5.2914964757 0.9945794835 -1.2224539286
C -4.7169980107 -0.2472728070 -1.2751492553
C -2.1363777773 1.1512327531 1.1022750147
O -1.2375138683 0.3783533888 1.3699059477
O -2.2262266318 2.4039226539 1.5821268603
C -1.1463757809 2.8122919661 2.4598883562
H 4.9930017582 1.8232696704 -1.1319597897
H 5.8187905921 0.2644847121 -1.0911170529
H 4.9881127175 0.8089071230 -2.5877471317
H 3.7866697874 -0.1571423210 2.9151083728
H 4.3523524071 -1.7611215940 2.3558509692
H 3.1619384404 -1.6481354448 3.6942398310
H 0.6394032182 -0.0935855757 -3.1261769029
H -0.3995953633 -1.4567972521 -0.0838011108
H -6.1763252766 1.3370925783 -1.7431826433
H -5.0934053093 -1.0688906740 -1.8688699298
H -0.1939267889 2.7612258219 1.9271549289
H -1.1169565957 2.1665430590 3.3403437979
H -1.3789896926 3.8383613524 2.7397206643
