45
CONF27
C -2.6354837825 -4.2805715940 0.6174087641
C -2.5501839362 -3.2145811757 -0.4259706292
C -2.8051959892 -1.9207921776 -0.2132294162
C -2.7211184267 -0.9084570050 -1.2755412935
C -2.1549882307 0.5119893567 -1.0199640741
C -3.6250778490 0.2899053926 -1.3596841704
C -4.7018144330 0.5112570542 -0.3233518970
C -4.0266200865 0.7386360014 -2.7490469936
C -1.6928352474 0.8941091591 0.3233341603
O -2.1856033325 0.5985066620 1.3897271932
O -0.5649433802 1.6675727361 0.2055502405
C 0.0698942436 2.0738831662 1.4412430692
C 1.5212505737 1.7134741722 1.3598106035
C 2.5223589960 2.6653086891 1.1956729151
C 3.8585384088 2.3005207497 1.0999570866
C 4.2583982537 0.9691322748 1.1578563245
C 3.2542316353 0.0186366533 1.3150737626
C 1.9192565600 0.3810004795 1.4159279106
F 0.9891133525 -0.5734938050 1.5650224096
F 3.5736622115 -1.2870800472 1.3723226071
C 5.7127796829 0.5928983150 0.9926893312
O 6.1304444987 0.6436771321 -0.3648145604
C 5.5428891325 -0.3775512284 -1.1625405394
F 4.7813192737 3.2618330477 0.9495135375
F 2.2022442193 3.9685966878 1.1347107367
H -3.3632092530 -5.0517933482 0.3369904155
H -2.9296801833 -3.8664901438 1.5855454169
H -1.6713018711 -4.7885340084 0.7405965142
H -2.2560155285 -3.5366245697 -1.4260607530
H -3.0819644167 -1.5881866190 0.7828433026
H -2.3987330594 -1.3071625270 -2.2356577737
H -1.5399911185 0.9109190692 -1.8191781882
H -5.5861925284 -0.0776226634 -0.5903630508
H -4.9921366264 1.5674411177 -0.3067519085
H -4.3866072434 0.2353137828 0.6812299994
H -4.2616696331 1.8087431381 -2.7561459308
H -4.9185805048 0.1930927633 -3.0765484976
H -3.2312987371 0.5585920978 -3.4783457010
H -0.0550890746 3.1532480083 1.5455513209
H -0.4174154555 1.5634894859 2.2765637438
H 5.8832842667 -0.4064918110 1.4168722168
H 6.3379713047 1.3146822698 1.5235969507
H 4.4514323359 -0.2622181399 -1.2362279374
H 5.9768072882 -0.2823277219 -2.1597775995
H 5.7678744783 -1.3764811737 -0.7597425245
