37
CONF15
C 4.1976703699 -0.2818106222 1.1079479966
C 3.1283239727 -0.4973548299 0.0401712558
C 1.7165789913 -0.2587609218 0.5755487491
C 0.6531386572 -0.4844885237 -0.4938480467
C -0.7962586492 -0.2899082063 0.0241756186
C -1.8428941590 -0.4760654996 -1.1235049395
N -1.7037304344 -1.7186406343 -1.8508673530
C -2.1784148230 -2.9531117055 -1.5529569227
N -1.7808063339 -3.8272157477 -2.4602498041
C -1.0431722446 -3.0598940626 -3.3100971389
N -0.9621518079 -1.7762528313 -2.9871234412
C -1.0651739479 -1.3263261124 1.0231249188
N -1.2864744272 -2.1788061469 1.7714690638
C -1.0134017376 1.1034919336 0.6181340111
C -0.7309543207 2.2272434095 -0.1637453100
C -0.9237433196 3.5105162963 0.3295442640
C -1.4076317873 3.6717205571 1.6231752411
Cl -1.6501990553 5.2860285765 2.2540632196
C -1.6978015787 2.5737134046 2.4202194456
C -1.4994924577 1.2943287270 1.9103197277
H 4.1638777255 0.7415869604 1.4964596468
H 5.2009930884 -0.4560987192 0.7087727183
H 4.0497425255 -0.9629267022 1.9525659842
H 3.3115338546 0.1735914571 -0.8094254907
H 3.1978042761 -1.5193856655 -0.3537888641
H 1.6414981337 0.7639934852 0.9664289317
H 1.5309955330 -0.9316230363 1.4237589798
H 0.7382427783 -1.4980205074 -0.8992039157
H 0.8043176672 0.1963520993 -1.3390104535
H -2.8490787866 -0.4200380044 -0.6970972281
H -1.7217611920 0.3367375933 -1.8424222059
H -2.7882734850 -3.1536293947 -0.6819834195
H -0.5576665257 -3.4516966642 -4.1941296463
H -0.3432948116 2.1149558539 -1.1713945428
H -0.6991706713 4.3770832969 -0.2810507545
H -2.0720674673 2.7131162059 3.4275321746
H -1.7211043382 0.4375953853 2.5384868418
