36
CONF5
C -1.8164749444 -0.7610262567 3.5791954984
C -2.0949783259 -0.8819796189 2.0959647077
C -3.4525011579 -0.3374197651 1.6924634556
O -1.0376844307 -0.0948429965 1.4329894312
C -0.7569925707 -0.3903353385 0.1513394202
O -1.2627842666 -1.3070822887 -0.4662798343
C 0.2474685972 0.5454342399 -0.4234459358
C 1.3722838854 -0.0248365402 -1.1692203871
O 2.1036255930 0.6202785062 -1.9101931762
O 1.5399030746 -1.3342649763 -0.9084988352
C 2.5874870073 -2.0436187190 -1.6556099619
C 2.9427715366 -3.2484542373 -0.8093300612
C 2.0503550350 -2.4122666743 -3.0267667529
C 0.0925748790 1.9068041716 -0.3355479308
S 1.1511601333 3.0522096728 -1.1534437169
C 0.4314221540 4.5571167343 -0.3710922046
C -1.0458398659 4.3130663243 -0.1803431184
S -1.2138157363 2.6521360870 0.5853706788
H -0.8225750677 -1.1453863893 3.8232884128
H -2.5596305399 -1.3408183836 4.1340221673
H -1.8830682788 0.2838732780 3.8981712877
H -1.9808238090 -1.9174824499 1.7612911635
H -3.5907143575 -0.3843403982 0.6095173224
H -4.2360186619 -0.9359273747 2.1671207601
H -3.5593760260 0.7002842670 2.0231189268
H 3.4435622777 -1.3681414750 -1.7465598008
H 3.3012618367 -2.9413731720 0.1768365852
H 3.7339239198 -3.8180138061 -1.3052196828
H 2.0721118419 -3.8999309902 -0.6846863594
H 1.1770744924 -3.0645999329 -2.9265616805
H 2.8220099435 -2.9471827450 -3.5886666316
H 1.7678085363 -1.5203688419 -3.5915647921
H 0.6183915402 5.3915927956 -1.0535464628
H 0.9402052396 4.7392293370 0.5799237576
H -1.4922923566 5.0327869343 0.5119312615
H -1.5898317204 4.3248809220 -1.1290441084
