32
CONF1
C 3.5559502558 -2.2724736559 0.5659317054
C 4.2182553943 -1.0362092605 0.4549233578
C 3.4972600026 0.1181398116 0.2747547035
C 2.0804756297 0.0936103414 0.1968140779
C 1.3996217699 -1.1650458547 0.3086828705
C 2.1840202226 -2.3286733213 0.4939152685
C -0.0344843178 -1.2116150789 0.2320486086
C -0.7618352154 -0.0109681120 0.0472615196
C -0.0837876935 1.2562061850 -0.0656076245
C 1.3030891291 1.2635464006 0.0124594838
Cl 2.1470265733 2.8044035818 -0.1234464572
C -0.8701419288 2.4424127525 -0.2521758987
C -2.2237447451 2.3920688592 -0.3227326678
C -2.9327203725 1.1540296089 -0.2143527154
C -4.3275492503 1.0948908265 -0.2853981381
C -4.9966426281 -0.1240362876 -0.1772712188
C -4.2848227410 -1.2988299815 0.0028395790
C -2.8797009575 -1.2826976327 0.0796182387
C -2.1852197000 -0.0445445665 -0.0290755585
C -2.1219011628 -2.4709451001 0.2637322452
C -0.7604037183 -2.4342862935 0.3363464828
H 5.3010726314 -0.9930423986 0.5117641557
H 4.0161520818 1.0645090811 0.1907273657
H 1.7024970309 -3.2939557639 0.5830422817
H -0.3647752461 3.3959963737 -0.3381067170
H -2.7961758356 3.3042581424 -0.4644202165
H -4.8865470140 2.0153204553 -0.4265091528
H -6.0801357478 -0.1505884076 -0.2347020712
H -4.8032855506 -2.2494284020 0.0875169699
H -2.6478394150 -3.4175922772 0.3468725233
H -0.2282660303 -3.3662227508 0.4768102848
H 4.1269660269 -3.1840599373 0.7085778259
