36
CONF5
C 5.6046059164 -0.0947366176 1.9688442706
O 4.6960999775 0.8372664877 1.3666075533
C 3.5858676158 0.3325667207 0.7628332161
C 3.2684162035 -1.0256662902 0.6940260324
C 2.0997798910 -1.4196211783 0.0458302904
C 1.2348318757 -0.4954588272 -0.5397723900
C 1.5620864306 0.8627798087 -0.4434771309
C 2.7208541628 1.2747643395 0.1925775520
C -0.0339238405 -0.9899865211 -1.2141162944
C -1.2920473714 -0.2583543385 -0.7764418051
C -1.6595241889 1.0288418239 -1.1914066486
C -2.8080130858 1.6349613211 -0.7078733207
C -3.6246097954 0.9730280425 0.2156818725
O -4.7266713399 1.6557881233 0.6309493675
C -5.5859825551 1.0106687000 1.5804087792
C -3.2764735533 -0.3096650054 0.6432781005
C -2.1227083198 -0.9055157748 0.1390447079
C 0.1225570925 -1.1409481041 -2.7522107951
Cl -1.4294385386 -1.7227627253 -3.4766005752
Cl 0.6097376366 0.3746281729 -3.5987987962
Cl 1.3941686927 -2.3830101292 -3.1160316465
H 5.1139889745 -0.6585582677 2.7707916872
H 6.0084524853 -0.7877046010 1.2216247936
H 6.4121458725 0.5079011727 2.3849735254
H 3.9077090436 -1.7789553929 1.1373878720
H 1.8615218553 -2.4783945345 0.0017788335
H 0.9043516656 1.6170290364 -0.8587294561
H 2.9695867878 2.3286328390 0.2646633154
H -0.1708826252 -2.0294986879 -0.8956313607
H -1.0618717006 1.5743593654 -1.9105642987
H -3.0877317018 2.6296098277 -1.0398208303
H -5.0489868232 0.7925106567 2.5109009165
H -6.0036442454 0.0850490891 1.1673348425
H -6.3905022725 1.7191474331 1.7787840290
H -3.8862269134 -0.8541539308 1.3536150499
H -1.8675225892 -1.9065414202 0.4764620278
