41
CONF49
C 0.1628707220 -3.4518381360 -0.1159782063
C -0.2443084998 -2.0240096851 -0.0662439889
C -1.4459484702 -1.4820811836 0.3229246982
C -1.3330508310 -0.0483535520 0.2450711577
C -0.0231383905 0.2526051842 -0.1702495239
N 0.6496187164 -0.9750689807 -0.3456479642
C 1.9555700507 -1.1542200653 -0.8405212747
O 2.2323946499 -2.0951078580 -1.5674066330
C 2.9771684640 -0.1808212678 -0.3883917062
C 2.9639230890 0.3381618000 0.9103717041
C 3.9837379190 1.1753865924 1.3409107482
C 5.0021377367 1.5011494425 0.4502778315
C 5.0382427571 0.9965163091 -0.8466583922
C 4.0256857128 0.1407928622 -1.2554259049
Cl 6.2827617165 2.5747742637 0.9800790016
C 0.3642139630 1.5654714934 -0.4304996889
C -0.5640512972 2.5706977804 -0.2089032878
C -1.8662438819 2.2824792753 0.2448268328
C -2.2699424390 0.9687799386 0.4661920749
O -2.6675642536 3.3735119746 0.4227429270
C -4.0089161399 3.1365071678 0.8649638738
C -2.6769197038 -2.2092139261 0.7442302381
C -3.7589223411 -2.3330602894 -0.3238505892
O -4.8959582732 -2.6678350188 -0.0782377942
O -3.3894573870 -2.0779068122 -1.5933669159
H 0.2477206557 -3.8122592092 -1.1450378434
H -0.5800470860 -4.0599024892 0.4033502622
H 1.1340099479 -3.6054411100 0.3633594024
H 2.1630040122 0.0779744911 1.5943390272
H 3.9877532220 1.5691318360 2.3505742048
H 5.8437335863 1.2656244624 -1.5199302068
H 4.0366776588 -0.2733873234 -2.2579205786
H 1.3516502103 1.8178351377 -0.7960932351
H -0.2987404744 3.6064700922 -0.3919652322
H -3.2762677217 0.7215195414 0.7821472513
H -4.4719653968 4.1200047873 0.9488434202
H -4.0186012116 2.6394920320 1.8425639890
H -4.5616014988 2.5295913310 0.1376330098
H -3.1486409493 -1.7253857808 1.6060557662
H -2.4521345767 -3.2352797638 1.0561415985
H -2.4504542738 -1.8133048357 -1.6046295347
