56
CONF33
C -4.1813912134 1.9662160850 -0.6332282069
C -2.7706025398 2.3034623099 -1.1165152781
C -2.8174590236 3.0184286478 -2.4680068509
C -1.9278393401 1.0136877449 -1.2175144468
C -1.8084724284 0.2498604618 0.0918803454
C -2.2920283113 -1.0563842787 0.1884621894
C -2.1654658706 -1.7835304213 1.3677074773
C -1.5291391080 -1.1952318330 2.4508309195
C -1.0495274365 0.1051493544 2.3887748215
C -1.1942948914 0.8246348590 1.2093212131
O -1.4120945576 -1.9009381547 3.6596369216
C -0.3225878438 -2.7196848470 3.7743621179
F 0.8463564523 -2.0325173462 3.5855433964
F -0.3310389574 -3.7102009590 2.8318897555
C -0.5055588932 1.2251957534 -1.7091566634
O 0.0979041286 0.4707371856 -2.4307592599
O 0.0383502539 2.3496052648 -1.1571814951
C 1.4939786265 2.4576533819 -1.2508849463
C 1.7891280265 3.8747335685 -1.4283852162
N 2.0373690271 4.9939733576 -1.5643990355
C 2.0872611680 1.8659007127 0.0055198476
C 2.2140036233 2.6263454118 1.1669299225
C 2.6407609753 2.0094530810 2.3387207456
C 2.9224072370 0.6496591958 2.3617336179
C 2.7931730552 -0.0994398438 1.1932645443
C 2.3851818959 0.5044934111 0.0054791226
O 3.1514771579 -1.4197356575 1.2733391711
C 2.5764928215 -2.3405599597 0.4092195998
C 3.4171522130 -3.3080910063 -0.1271982578
C 2.8757022691 -4.3002912738 -0.9383602867
C 1.5118177073 -4.3171467271 -1.2154753708
C 0.6853617122 -3.3398410266 -0.6669394691
C 1.2094382232 -2.3485773972 0.1533015935
H -4.1698588383 1.4872008382 0.3498762019
H -4.7873229190 2.8744231814 -0.5629703843
H -4.6784772572 1.2866487210 -1.3360834321
H -2.2945952464 2.9648040199 -0.3829351183
H -3.4150967568 3.9319852988 -2.3972905059
H -3.2780992070 2.3762062993 -3.2279145958
H -1.8198692561 3.3009608631 -2.8173231727
H -2.3907036278 0.3504751559 -1.9568004995
H -2.7741236495 -1.5128674720 -0.6708275352
H -2.5393935610 -2.7975363491 1.4480003271
H -0.5559805579 0.5372957771 3.2517437113
H -0.8063480642 1.8355456620 1.1575554442
H -0.3286108556 -3.1655951330 4.7729620172
H 1.8262722668 1.9066575490 -2.1380741296
H 1.9865681482 3.6873730022 1.1520659810
H 2.7497801416 2.5931186680 3.2469953907
H 3.2462553553 0.1516015626 3.2688372654
H 2.2788532767 -0.0801871165 -0.9015594118
H 4.4769608079 -3.2745101576 0.1000565390
H 3.5269595163 -5.0593363738 -1.3595315632
H 1.0947523991 -5.0887164473 -1.8535307582
H -0.3810059869 -3.3476341400 -0.8679746937
H 0.5672688882 -1.5949326708 0.5947110997
