48
CONF24
C -5.2188324093 -0.2631945648 0.8793415880
C -3.8911034008 0.0849508550 0.1877211968
C -3.0846375586 1.0050769739 1.1144479666
C -4.1855143595 0.8212329980 -1.1275514944
C -3.1400733338 -1.2439794056 -0.0728107274
C -1.6801634628 -1.0425855051 -0.5600840253
N -1.2021957625 -2.2057480979 -1.3016140926
C -0.8450806583 -2.3003883122 -2.5998612183
N -0.5613921270 -3.5582175739 -2.9057170903
C -0.7794366268 -4.2095641294 -1.7274379600
N -1.1768139972 -3.4352648963 -0.7267620956
O -0.8958874520 -0.8587647043 0.6000517992
C 0.3406052395 -0.2626646332 0.5048080252
C 1.0125966636 -0.1126811593 1.7197312748
C 2.2600362699 0.4882710393 1.7515211435
C 2.8724261773 0.9564976431 0.5784473737
C 2.1805192043 0.7932205907 -0.6256939481
C 0.9269613997 0.1884960711 -0.6762557800
C 4.2029028956 1.5966806725 0.6151889533
C 4.5070933307 2.6746217322 -0.2290403000
C 5.7613059567 3.2751773633 -0.1946055690
C 6.7378919939 2.8138359965 0.6858787027
C 6.4481150547 1.7446681541 1.5311489843
C 5.1951060768 1.1416218406 1.4958689459
O -3.8832467922 -1.9798713676 -1.0402944206
H -5.0383946415 -0.7682482728 1.8349409340
H -5.8324957699 -0.9153609301 0.2525533836
H -5.7834019389 0.6530195872 1.0804165332
H -3.6980473108 1.8756101615 1.3693357180
H -2.8084611764 0.4962498755 2.0435268019
H -2.1690744414 1.3717155061 0.6397981011
H -4.7942979816 0.2112047242 -1.7992930215
H -4.7356838455 1.7421098507 -0.9080605733
H -3.2687573726 1.1073501697 -1.6544365086
H -3.0765314833 -1.8022790877 0.8728841206
H -1.6099335001 -0.1913742681 -1.2465140831
H -0.8072648862 -1.4453866272 -3.2629230748
H -0.6413822557 -5.2760002168 -1.6006802700
H 0.5364702978 -0.4602932938 2.6307826834
H 2.7562913929 0.6182022694 2.7081423376
H 2.6353747574 1.1195073074 -1.5557572179
H 0.4441810772 0.0739181010 -1.6381507359
H 3.7467572302 3.0601585867 -0.9015376532
H 5.9730950629 4.1135798170 -0.8512743753
H 7.7159831719 3.2836113360 0.7132362580
H 7.2043358346 1.3714556030 2.2150755640
H 4.9905945147 0.2933136633 2.1419777492
H -3.6405370624 -2.9113941654 -0.9604702845
