70
CONF85
C -1.8156807096 -1.8606645636 1.4405450181
C -2.7517504826 -1.9709530006 2.6669400262
C -2.1012780185 -1.3265933358 3.8468407723
C -2.1801777606 -1.4945536016 5.2047660036
N -1.3058619824 -0.6032358321 5.8268020475
C -0.6462882061 0.1380399416 4.8707005304
C 0.3263376144 1.1373759654 4.9230383365
C 0.7661588616 1.6430311126 3.7038821586
C 0.2723123264 1.1862637458 2.4632459026
C -0.7017256342 0.1971646287 2.4102309995
C -1.1399704564 -0.3071495791 3.6309541246
C -1.3696640441 -0.3900133624 1.1856301500
C -0.4915023051 -0.2878859288 -0.0576271969
C -1.2018179681 -0.9034913574 -1.2673460119
C -1.5801048833 -2.3412983962 -0.9347688675
N -2.4777404863 -2.3662291480 0.2264311261
C -3.0977129919 -3.6933153595 0.3792919274
C -2.1772968609 -4.7989503295 0.8253316496
C -2.4227610610 -5.6122176128 1.8488214831
C -0.3123331589 -0.8646173178 -2.4976728717
O 0.0694156793 -1.8876054646 -3.0504653522
N 0.1709707135 0.3718442785 -2.9318651060
C 1.2320809514 0.3283024163 -3.9574994677
C 2.5718507499 -0.2089813570 -3.4438871047
C 3.1131731361 0.4834441821 -2.1982659448
N 3.2530373912 1.9436343015 -2.3258787497
C 3.6317618462 2.5235800778 -1.0357985640
C 4.2183115525 2.3216672086 -3.3580083477
C -0.4398040945 1.6169230527 -2.5608913531
O -1.6360246612 1.7100616907 -2.3224738138
N 0.4209555858 2.6634045894 -2.5237020789
C -0.0615923969 3.9752194192 -2.1102656999
C -0.1959636981 4.1040928186 -0.5942221992
H -0.8982984954 -2.4447549603 1.6694146342
H -3.7023765870 -1.4773545087 2.4178781810
H -2.9697632356 -3.0203146483 2.8798590124
H -2.7784789796 -2.1707775498 5.7988973238
H -1.1702541951 -0.5334722224 6.8191977234
H 0.7297435735 1.5090632596 5.8594006535
H 1.5232024144 2.4211404657 3.7063379400
H 0.6644490882 1.6304678562 1.5539574336
H -2.2911413639 0.1819604083 0.9890766533
H -0.2505079901 0.7625190951 -0.2447949496
H 0.4551369801 -0.8189894004 0.1232280794
H -2.1120860420 -0.3313297765 -1.4651105511
H -2.0976075048 -2.7924907892 -1.7873197112
H -0.6565956626 -2.9270622292 -0.7732716157
H -3.9499934025 -3.6254751164 1.0644761804
H -3.5163060885 -3.9527955714 -0.6027324757
H -1.2611248055 -4.9290115406 0.2508547664
H -3.3304690442 -5.5148905090 2.4412774987
H -1.7386067374 -6.4081160195 2.1255807764
H 1.3415467635 1.3379877782 -4.3588330688
H 0.8878001998 -0.3207950778 -4.7697212088
H 2.4577294853 -1.2706623018 -3.2067316091
H 3.2936820325 -0.1551806720 -4.2675109050
H 4.0800216774 0.0209250056 -1.9205994958
H 2.4227398735 0.2997375020 -1.3644624637
H 3.6735608408 3.6151449864 -1.1155128234
H 4.6155646112 2.1641831453 -0.6826975924
H 2.8830078937 2.2609163381 -0.2804988658
H 5.2231440140 1.9009977853 -3.1669240573
H 3.8839501726 1.9800007670 -4.3411196218
H 4.3046493614 3.4120879611 -3.3937594529
H 1.4358176678 2.4850156097 -2.5188802691
H 0.6395138080 4.7227469510 -2.4993450479
H -1.0327972522 4.1468920391 -2.5845917686
H 0.7695243745 3.9516443860 -0.0997696859
H -0.9055364474 3.3640738285 -0.2141429303
H -0.5621570119 5.0996735617 -0.3239195148
