23
CONF15
C -4.4638858965 -0.2959581053 -0.1918880605
C -3.8517548031 -0.1198640362 1.0479277126
C -2.4826201122 0.1119195914 1.1300683534
C -1.7327109890 0.1607439784 -0.0418340586
C -2.3306704434 -0.0147523981 -1.2861789440
C -3.7023205091 -0.2393984504 -1.3567005802
N -0.3217943564 0.4251240279 0.0188760252
C 0.5162651164 -0.4141556341 0.8034327817
O 0.0473478032 -1.3598460749 1.4382976122
C 1.8956950918 -0.0384072344 0.7491622714
C 2.3603463218 1.0056762627 -0.0280850777
C 1.3666887499 1.7120200417 -0.7822217587
N 0.0978508687 1.4314148177 -0.7563118504
N 3.6554201304 1.3630368506 -0.1375163247
Cl 3.0110505851 -0.9899814306 1.6887006502
H -5.5326518643 -0.4753324736 -0.2493634349
H -4.4426571660 -0.1551952742 1.9575738407
H -2.0007252127 0.2588533402 2.0893414697
H -1.7251743334 0.0250741380 -2.1852098421
H -4.1734188996 -0.3764047623 -2.3247192219
H 1.6602130487 2.5416673423 -1.4199627246
H 4.3461037361 0.9620803259 0.4763263113
H 3.8983272135 2.2120945313 -0.6205854362
