18
CONF1
C -1.0266785276 1.0414163500 0.6527084731
N 0.1731795146 1.4480349548 -0.0710975918
C 1.3749011051 0.6399299233 0.1831584237
N 1.0376369509 -0.7594859315 -0.0408988915
C -0.1325254502 -1.2718156438 0.6818072485
N -1.2622432145 -0.3781217977 0.4053485067
N -2.2952110158 -0.6927376822 -0.3881233475
O -2.3669732587 -1.8592765608 -0.7408215861
N 1.5671228184 -1.3440113339 -1.1261352375
O 1.1378695773 -2.4527341669 -1.4019089305
N -0.0023186221 2.2240919079 -1.1490897837
O 0.9827474368 2.4032241506 -1.8477244225
H -0.8657681986 1.1937333165 1.7256352421
H -1.8816578435 1.6210600323 0.2983572034
H 2.1706293601 0.9395848290 -0.5009638922
H 1.6767079684 0.7837437293 1.2261966177
H 0.0788068954 -1.2566929429 1.7560464752
H -0.3662250992 -2.2799430388 0.3375055936
