24
CONF10
C 1.5270448626 -0.1320849903 2.1932522912
C 0.5450461283 -0.0023816321 1.0458585489
C 1.2230563667 -0.2622318808 -0.3042426409
C 0.3467292035 0.1603874518 -1.5128733704
C -1.0244160533 -0.4939698420 -1.4443541853
O -1.1410490442 -1.6870856093 -1.1918238826
C -2.2457385023 0.3441524631 -1.7066397495
O -3.4275059725 -0.4106506507 -1.6493513283
O 0.2879425483 1.5599387282 -1.7059776999
O 1.6114932072 -1.6227830156 -0.3942928974
O -0.0093500106 1.3223622287 1.0188919029
O 0.7844467997 0.1852099208 3.3797809314
H 1.9250605174 -1.1542609526 2.2222465310
H 2.3538645210 0.5795753977 2.0460429765
H -0.2643054539 -0.7363604513 1.1905049636
H 2.1385338882 0.3398863319 -0.3709061224
H 0.8392472632 -0.2641670243 -2.4000440173
H -2.1199661747 0.8300459050 -2.6879394120
H -2.2557143713 1.1612784766 -0.9661954347
H -3.1567204719 -1.3181149940 -1.4344137560
H 0.1082555678 1.9510316706 -0.8374655296
H 0.7981944178 -2.1316768375 -0.5437934826
H -0.2376681326 1.5474334627 1.9309272544
H 1.3935189219 0.2344657270 4.1228082307
