51
CONF107
C 1.7859067727 0.2551461148 1.4287259383
C 2.5776094785 0.1727675285 0.1489441659
C 2.0949589359 0.8040886373 -1.0138971784
C 2.7820544864 0.6955583206 -2.2224704185
C 3.9569639986 -0.0430713242 -2.3023419837
C 4.4502591871 -0.6578591076 -1.1604432772
C 3.7855609555 -0.5485951986 0.0692494279
C 4.4033012478 -1.2002070425 1.2510060323
C 4.7521118321 -2.5556220940 1.2070115130
C 5.3668595005 -3.1675671975 2.2958455076
C 5.6503467243 -2.4320664029 3.4443728308
C 5.3159455830 -1.0801179008 3.4959153063
C 4.6968490558 -0.4700419416 2.4095687467
C 0.8260137809 1.5994611283 -0.9777614134
O -0.2936196536 0.6524977808 -1.0253130551
C -1.5169156049 1.1865904943 -0.8225637455
O -1.7110750980 2.3724885243 -0.6328296574
C -2.5497820870 0.1282344964 -0.8539384652
C -4.0095253637 0.5586434343 -1.0159419235
C -3.5372655375 -0.0502083410 0.2907604492
C -3.4848920691 0.8712277115 1.4877605924
C -3.9022748855 -1.4759533202 0.6398278622
C -4.8503161676 -0.1803183305 -1.9558771553
C -5.8410478445 0.3368966920 -2.6900791491
C -6.2323982641 1.7955032378 -2.6421520339
F -6.5473720352 2.1777200372 -1.3765600092
F -7.2883246913 2.0917699132 -3.4171728122
F -5.2080445643 2.5953217458 -3.0404157814
Cl -6.7687109657 -0.6626356733 -3.7853674178
H 1.9364361498 1.2188884490 1.9303063531
H 2.0821439363 -0.5281186398 2.1274710227
H 0.7157613792 0.1524350223 1.2332091535
H 2.3878820793 1.1942588485 -3.1035389616
H 4.4900330534 -0.1287218404 -3.2437620260
H 5.3801207657 -1.2172805937 -1.2042635353
H 4.5268865397 -3.1341288822 0.3156644287
H 5.6224439127 -4.2216915334 2.2472941551
H 6.1311958908 -2.9081657785 4.2931082134
H 5.5428804885 -0.4966478338 4.3829901375
H 4.4511236138 0.5868454945 2.4510193056
H 0.7487670072 2.2616478911 -1.8444150086
H 0.7328968993 2.1977731346 -0.0678072749
H -2.2481077405 -0.7899902318 -1.3468336892
H -4.1369591395 1.6345653285 -0.9696473971
H -2.7186272154 0.5285242295 2.1922494062
H -3.2637835419 1.9013574762 1.2052914425
H -4.4514702303 0.8498989821 2.0019210254
H -3.2132445885 -1.8506930946 1.4037500983
H -3.8506133445 -2.1503025799 -0.2172734668
H -4.9168868046 -1.5118307174 1.0513738659
H -4.6520552357 -1.2417289613 -2.0719698479
