67
CONF10
C 6.6780948237 -1.8838451004 2.2644752014
C 5.4922982583 -1.7628286324 1.3597775165
O 5.5287896381 -1.6236576896 0.1560695998
O 4.3328439989 -1.8216197164 2.0657008734
C 3.1364975072 -1.5807014955 1.3208855964
C 2.9444770772 -0.0955310359 1.0650766140
O 3.7996672207 0.7145360382 1.3582288791
C 1.6051383168 0.3179747427 0.4510397951
C 1.7231121675 1.5730584967 -0.4731038108
C 0.7463940246 2.6105496605 0.0689512626
C -0.3092502462 1.8091552022 0.8543767921
C 0.5292406222 0.6970683756 1.5386530064
C -0.3490662833 -0.4602804928 2.0268239640
C -1.4504179065 -0.9350736382 1.0871547735
C -2.3180049457 0.2191841404 0.5738367169
C -1.4642838921 1.3261594846 -0.0508581066
C -2.3164874763 2.5534670917 -0.4341528533
C -3.6939475586 2.2195843981 -1.0085534183
C -3.6980879476 0.8001590533 -1.4708481694
C -3.7559105587 0.5449017286 -2.7900086339
C -3.5144410249 -0.7856718600 -3.3467233777
O -3.5765405737 -1.0018326003 -4.5635497014
C -3.1839094164 -1.8327458870 -2.3850275597
C -3.1314902978 -1.5879458553 -1.0682934223
C -3.4586104519 -0.2659998303 -0.4311508799
C -4.7938064885 -0.5454362299 0.3328500676
F -4.6838169291 2.4182471016 -0.0056658118
F -2.9425547741 0.7776383011 1.7263544091
O -2.2394275114 -1.9280349007 1.7527988130
C 1.2249171207 1.2959587426 2.7766382494
O 1.2785825001 1.0952106719 -1.7542590810
C 1.4638369267 -0.3193798524 -1.7675093795
O 1.1302252918 -0.7167250667 -0.4152839183
C 0.4663423670 -0.9455752811 -2.7135500329
C 2.9030158232 -0.6811907026 -2.1137723762
H 6.8631619283 -0.9033270301 2.7171008863
H 7.5534768383 -2.1765018446 1.6854304613
H 6.4892150911 -2.5943601910 3.0713760064
H 3.1389052012 -2.1233769547 0.3711351859
H 2.3118747023 -1.9630666785 1.9296641143
H 2.7514721204 1.9431300877 -0.5389924415
H 0.3387139170 3.2139772409 -0.7449937949
H 1.2795932664 3.2892906509 0.7399361330
H -0.7577515919 2.4258756129 1.6421084148
H -0.8322905470 -0.1204614927 2.9522527074
H 0.2573748761 -1.3296289059 2.3014379001
H -1.0099395966 -1.4277601523 0.2177010784
H -1.0455461401 0.8908289792 -0.9656107806
H -2.4701883819 3.1952236369 0.4401544351
H -1.7753551487 3.1442907232 -1.1769772906
H -3.9642601926 2.8962793731 -1.8233149766
H -3.9390459911 1.3459542622 -3.5020416281
H -3.0017285045 -2.8286503937 -2.7789009195
H -2.9486794719 -2.4056929224 -0.3789121737
H -4.6527224509 -1.3797738501 1.0222103636
H -5.5608283031 -0.8131416176 -0.3985742447
H -5.1178930681 0.3326599798 0.8861626925
H -2.6333945844 -1.5112579308 2.5319292416
H 1.9302794080 2.0889712632 2.5205000690
H 0.4630496446 1.7094258202 3.4430654712
H 1.7732773164 0.5255933025 3.3294239262
H -0.5496816103 -0.6504081648 -2.4453792686
H 0.5464580717 -2.0346440017 -2.6680054856
H 0.6781938515 -0.6216901304 -3.7354834782
H 3.1243580892 -0.3337776608 -3.1264788880
H 3.0385066437 -1.7655096553 -2.0765206196
H 3.6179749134 -0.2172489134 -1.4287842919
