31
CONF74
F 1.5407906101 -1.9720848603 0.9849594459
C 1.6370129552 -0.7469104936 0.4197458476
F 2.0085427126 0.1390551362 1.3680140233
C 0.2642440651 -0.3445259382 -0.2017331130
F 0.4792901424 0.6415969117 -1.1030501247
F -0.2466627461 -1.4245550816 -0.8288747466
C -0.7697633410 0.1698169204 0.8519321108
F -0.3992994714 1.3968908959 1.2705048411
F -0.7424965249 -0.6785589084 1.9123420246
C -2.2797160432 0.2362651486 0.4041471802
F -2.7348461402 -1.0221192821 0.2338613943
F -2.9431562282 0.7979267651 1.4461450725
C -2.5971035965 1.0645465271 -0.8793347644
F -1.9403889757 2.2452577211 -0.8299622826
F -2.1799546181 0.3650301348 -1.9577421316
C -4.1149972165 1.3828623239 -1.0852896688
F -4.5536039199 2.2543196938 -0.1711195581
F -4.8467519790 0.2630862973 -1.0121916438
F -4.2723497696 1.9240236361 -2.3010302968
S 3.0467410931 -0.8312546067 -0.8854539229
O 3.5339830614 0.5342448741 -1.0387467226
O 2.5247194315 -1.6502836951 -1.9749697611
N 4.2242401474 -1.7198893873 -0.1201440236
C 4.9434361843 -1.1770043729 1.0510937611
C 6.3024353163 -1.8514518207 1.1689850112
H 3.9695679379 -2.7016038279 -0.0658874057
H 5.0610788049 -0.1025728486 0.8865849733
H 4.3603039324 -1.3177416732 1.9713340739
H 6.9005142255 -1.6755496377 0.2715793643
H 6.2001897387 -2.9320305655 1.3118028200
H 6.8386368878 -1.4501698399 2.0335350448
