42
CONF31
C 3.1006779759 -0.0780732100 -2.8673366005
C 3.1952408175 0.2953239761 -1.4278339915
N 2.0502753852 0.6118334789 -0.7942669655
C 2.1855713518 0.9251619032 0.4982757674
N 3.3369447406 0.9296769616 1.1849540179
C 4.3954453257 0.5900805978 0.4535399773
N 4.3959460904 0.2716899755 -0.8515739299
O 5.5978531639 0.5501384368 1.0171569230
C 5.6947550392 0.8829594129 2.4251963112
N 1.0767401767 1.2834016486 1.2319984036
C -0.2711851651 1.4047445584 0.8750334623
O -1.0988184607 1.7032012892 1.7212397390
N -0.5582343560 1.1806316907 -0.4502977304
S -2.1623047076 0.9752226819 -0.9977153393
O -2.8903204108 2.2325201296 -0.8078383217
O -1.9890032404 0.4391286394 -2.3535950641
C -2.8766324207 -0.2499271056 0.0851912521
C -4.0558451273 0.0705785508 0.7490850677
C -4.6651572849 -0.8748686713 1.5643144243
C -4.0759702031 -2.1267025303 1.7157488233
C -2.8883833185 -2.4506857168 1.0665012328
C -2.2714340304 -1.5122189215 0.2355614835
O -1.1120244928 -1.7184828445 -0.4262825876
C -0.4845970443 -3.0063570908 -0.3221722240
C 0.7520185768 -2.9807392171 -1.1743860624
Cl 0.3345975891 -2.8339424831 -2.9484369812
H 4.0100643210 0.2098500918 -3.3969842383
H 2.2210245831 0.3730612376 -3.3286543163
H 2.9985893146 -1.1677312950 -2.9427717404
H 6.7533234911 0.7835452521 2.6607857080
H 5.0999463152 0.1867412823 3.0204765804
H 5.3559113994 1.9070834258 2.5958823535
H -4.4844010651 1.0578571642 0.6223488195
H -5.5867946530 -0.6312267311 2.0802233696
H -4.5411055949 -2.8702262844 2.3550944589
H -2.4496578431 -3.4295051748 1.2136103517
H -1.1770021649 -3.7923780160 -0.6446124756
H -0.1802315018 -3.1911740600 0.7178975300
H 1.3878824606 -2.1273865800 -0.9305142842
H 1.3063552198 -3.9126925332 -1.0539013329
H 0.1927238073 0.7924605102 -1.0399812629
H 1.2528892551 1.4984762532 2.2054680890
