70
CONF480
C -1.3814189668 -2.0035261608 1.8370998235
C -2.3170342460 -2.0871790031 3.0693928835
C -1.8222431121 -1.1777002444 4.1456784297
C -1.9235891775 -1.1588898704 5.5126556622
N -1.2291672015 -0.0547740301 6.0062284069
C -0.6645809756 0.6404885144 4.9589325449
C 0.1271614309 1.7863092462 4.8730586608
C 0.5196863729 2.1769703111 3.5968132425
C 0.1515267391 1.4696222037 2.4323921986
C -0.6427472938 0.3327734254 2.5160532664
C -1.0327482514 -0.0555803152 3.7933366248
C -1.1669546089 -0.5247841925 1.3843188872
C -0.2760469478 -0.4432844231 0.1488394462
C -0.8323922114 -1.3219327321 -0.9747333291
C -0.9945330890 -2.7383885766 -0.4461043093
N -1.9249984029 -2.7574532542 0.6932940577
C -2.2770886279 -4.1481620078 0.9744572514
C -3.2802900080 -4.7187353667 0.0094607760
C -4.0237303087 -4.0209077168 -0.8427773773
C 0.0927775321 -1.3084223830 -2.1791206218
O 0.6580212496 -2.3200955861 -2.5708308091
N 0.3942676173 -0.0794474913 -2.7705764994
C 1.5005031586 -0.0834665817 -3.7484343416
C 2.8793502364 -0.3360077578 -3.1285533007
C 3.2339949818 0.5626520567 -1.9499256017
N 3.1476632208 2.0049674434 -2.2342475331
C 4.0927619979 2.4242164520 -3.2692318826
C 3.3680465945 2.7686425554 -1.0043016874
C -0.4255917739 1.0858028887 -2.5961389676
O -1.6331467522 1.0113428701 -2.4149646393
N 0.2568275113 2.2548906812 -2.6735807210
C -0.4492405817 3.5130035680 -2.4670202656
C -0.6836760216 3.8228254830 -0.9897792890
H -0.3868019430 -2.3995509405 2.1395767541
H -3.3313948473 -1.8126011547 2.7454404327
H -2.3659055432 -3.1101585657 3.4511387096
H -2.4275040340 -1.8309865690 6.1928902825
H -1.1484020337 0.1822068179 6.9786011522
H 0.4295812346 2.3525808066 5.7479726123
H 1.1363142871 3.0642301704 3.4912551353
H 0.4944140691 1.8406116797 1.4719592308
H -2.1632601200 -0.1470465232 1.1020116836
H -0.2002854708 0.5992921854 -0.1733882655
H 0.7368616881 -0.7830292390 0.4120246090
H -1.8111968894 -0.9341227213 -1.2696866845
H -1.3902336516 -3.3859108046 -1.2318975338
H -0.0059156528 -3.1465059477 -0.1596879539
H -1.3805256475 -4.8028618167 0.9939424054
H -2.7211822733 -4.2333976420 1.9708879539
H -3.3951695006 -5.8010937737 0.0644285794
H -3.9266093854 -2.9418156461 -0.9138160269
H -4.7437736753 -4.5121364107 -1.4885678167
H 1.4750708147 0.8736904220 -4.2733885863
H 1.3011231705 -0.8736242322 -4.4804002432
H 2.9219716493 -1.3706009122 -2.7763022310
H 3.6272093908 -0.2516683523 -3.9259870506
H 4.2452259928 0.2970519438 -1.5854517733
H 2.5360701522 0.3562588836 -1.1279388073
H 4.0106787880 3.5050246480 -3.4208005349
H 3.8646596174 1.9346421423 -4.2197352420
H 5.1400448622 2.1909859743 -3.0008772568
H 2.6383404377 2.4638916664 -0.2462403299
H 4.3800247672 2.6140076569 -0.5876067660
H 3.2369732818 3.8382267443 -1.2004295731
H 1.2837501680 2.2414496326 -2.5877496147
H 0.1431275365 4.3066591027 -2.9372751166
H -1.4081957148 3.4548699801 -2.9909947483
H 0.2664160102 3.9016571398 -0.4505901280
H -1.2839936002 3.0331373449 -0.5295792564
H -1.2188795226 4.7708659976 -0.8754282784
