48
CONF24
C -6.6679746013 0.5656123741 0.5960665060
C -5.5059425303 -0.2372909398 0.0298593432
C -4.2040891180 0.5438652477 0.1615556950
N -3.0619339799 -0.2433649496 -0.3534282948
C -2.9516775772 -1.5394258954 0.3261640183
C -4.2654127569 -2.2955260800 0.1901973674
N -5.3583579444 -1.5031662223 0.7633413245
C -1.8919951625 0.4319064258 -0.6422747581
C -1.8849341559 1.5279326537 -1.5484713636
C -0.7556199588 2.2162917854 -1.8829886380
C 0.4884855679 1.8288127287 -1.3542402490
C 0.5215511296 0.7129599130 -0.4931238889
C -0.6490105286 0.0442841366 -0.1319837084
N 1.7556913028 0.3050481903 0.0260261783
C 2.8878715478 0.9725072400 -0.2701295838
C 2.9128777619 2.0698239391 -1.0942172692
C 1.6945681681 2.5527098103 -1.6942962288
O 1.6764575387 3.5537746784 -2.4659531846
C 4.2175366155 2.7252739019 -1.3518099106
O 5.2711186720 2.3483399055 -0.8610222559
O 4.1669328223 3.7767456958 -2.1727872857
C 1.8378399246 -0.8443646784 0.8796422273
C 1.7427394162 -2.1204990432 0.3304061921
C 1.8164931346 -3.2602510457 1.1090940657
C 1.9992755274 -3.0757476648 2.4711571160
C 2.1073709171 -1.8281358192 3.0646774851
C 2.0185744910 -0.7050247281 2.2509769444
F 2.0726980201 -4.1731145954 3.2517929919
F 1.5682704831 -2.2437090363 -0.9970346063
F -3.0458174142 1.8723095080 -2.1550254699
H -6.4900635635 0.8092509894 1.6489071069
H -6.8000582640 1.4971324670 0.0374730719
H -7.5978984515 -0.0078931234 0.5274055553
H -5.6777435892 -0.4192395137 -1.0488772332
H -4.2845628729 1.4844295064 -0.3819159531
H -4.0293636057 0.7724417844 1.2272269522
H -2.7059510699 -1.4071875509 1.3941069951
H -2.1548297312 -2.1219362841 -0.1463403589
H -4.4285731312 -2.5258842392 -0.8786410163
H -4.1802620299 -3.2434706635 0.7320220545
H -6.2238675902 -2.0287624143 0.6822458915
H -0.8093248909 3.0406268517 -2.5850039742
H -0.5959587432 -0.7686425030 0.5789380509
H 3.7980283261 0.5881125773 0.1777682677
H 1.7404111608 -4.2480975653 0.6701768878
H 2.2498681962 -1.7413336562 4.1352119837
H 2.0865322453 0.2908279441 2.6759224148
H 3.1883109046 3.8904344713 -2.4448992929
