82
CONF38
C -4.7471119714 3.0880379675 -2.4836774972
C -4.0445099999 2.7722569119 -1.1922542348
C -3.4302839208 3.7249082414 -0.4845609349
C -4.1735014856 1.3258741112 -0.7691091874
C -5.5768832776 1.0826234593 -0.0944775386
C -5.2717986580 0.4316234498 1.2706501765
C -3.9449795263 -0.3038410677 1.0391431509
C -3.1655219734 0.7825805246 0.2604748921
C -1.8085255966 0.2730241726 -0.2226408344
C -1.0458500445 1.2623432875 -1.1071192736
C 0.3117703434 0.7180642115 -1.5678478246
C 1.1668918161 0.1523253217 -0.4212456748
C 2.6233869945 -0.2507439160 -0.8587603530
C 3.3203867543 1.0210632127 -1.3960291900
C 4.8332585099 0.8716258348 -1.5368714014
C 5.4783879843 0.4746616645 -0.2229788795
C 4.9180133654 -0.8481285872 0.3554562905
C 3.3666947726 -0.6850312959 0.4429844491
C 2.6489908791 -1.8659416779 1.1002644195
C 1.2375108102 -1.4702937295 1.5360182325
C 0.3626565469 -0.9091761064 0.3952967095
C -0.9297972395 -0.1804342526 0.9890983927
C -1.7198102362 -1.1300072938 1.9334552062
C -3.1443224922 -0.6636049476 2.2884941805
C -0.5512704806 1.0470991742 1.8534352083
C -0.0448338325 -2.1134054678 -0.4847722966
C 5.3809144587 -2.0631414445 -0.4602628364
C 5.4788757250 -1.0054079515 1.7831139314
O 6.8981597484 0.4304319314 -0.4632348044
C 2.6414068776 -1.3122983761 -1.9786995428
C -4.1993150354 -1.5604296200 0.1809172024
O -5.0046437388 -2.5438164074 0.8541568774
H -5.7941857066 2.7618998751 -2.4433267657
H -4.7211825758 4.1558669389 -2.7149346601
H -4.2820800672 2.5368045606 -3.3111066960
H -3.4275257245 4.7549254294 -0.8310699920
H -2.9105478641 3.5181852471 0.4453094652
H -4.1134669120 0.7168351886 -1.6820739590
H -6.1281843660 2.0203686988 0.0203050954
H -6.1918312529 0.4225486640 -0.7139619394
H -5.1159855469 1.2043377092 2.0338200240
H -6.0886743633 -0.2062831200 1.6267948391
H -2.9912397801 1.5829887598 0.9911271907
H -2.0007652739 -0.6114282592 -0.8415691733
H -1.6539105883 1.5012414182 -1.9883548459
H -0.9090014394 2.2112459962 -0.5778541102
H 0.8518526919 1.5240555377 -2.0746591208
H 0.1367285295 -0.0525185653 -2.3269944753
H 1.3454879675 0.9797165196 0.2774979676
H 3.1123872248 1.8556425665 -0.7107752742
H 2.9019091841 1.2959120186 -2.3700434789
H 5.0903251035 0.1332771017 -2.3058981074
H 5.2665696037 1.8238109190 -1.8651836462
H 5.2636665824 1.2648663422 0.5180929837
H 3.2311071447 0.1705641178 1.1284926073
H 3.1944559705 -2.1984356030 1.9883376489
H 2.6231463541 -2.7277381623 0.4244546040
H 1.3461999757 -0.7285783907 2.3346554312
H 0.7357034792 -2.3386116035 1.9810815003
H -1.7857350585 -2.1333309043 1.5043813557
H -1.1509013949 -1.2432996941 2.8639314323
H -3.6467415905 -1.4542265789 2.8586555084
H -3.1085974280 0.2182812990 2.9405775286
H -1.4172725598 1.4005247580 2.4184410236
H -0.1805093090 1.8959516299 1.2786757552
H 0.2133131847 0.7870121098 2.5887833032
H -0.8361344595 -2.6988046617 -0.0100151594
H 0.8001789435 -2.7888614894 -0.6227704477
H -0.3951881781 -1.8334902168 -1.4792843803
H 5.1909812227 -1.9602546693 -1.5291796683
H 6.4569091382 -2.2115504835 -0.3270204683
H 4.8739142556 -2.9688076555 -0.1127105168
H 5.2200108126 -1.9767846720 2.2119932292
H 5.0978344625 -0.2212171933 2.4476636984
H 6.5737290166 -0.9539590588 1.7825780083
H 7.3459248187 0.3218096051 0.3839910457
H 2.6125913465 -2.3359938550 -1.6028750966
H 1.7885627337 -1.1811794755 -2.6494878434
H 3.5395343986 -1.2219089910 -2.5931199555
H -4.6611553959 -1.2898328251 -0.7776612751
H -3.2630420817 -2.0742428663 -0.0447006566
H -5.9035136918 -2.2001752560 0.9185736369
