26
CONF13
C -2.9386032997 -1.9001563194 0.2684725900
O -2.9578620655 -0.5244563587 -0.2076342669
P -1.7963102041 0.4963338467 0.1933327127
S -1.1774749564 0.4696500652 2.0300953292
O -2.3661247910 1.8519210526 -0.4169949620
C -3.4630421551 2.5361362280 0.2583795572
O -0.6417613169 0.1937713009 -0.9305512156
C 0.6776401150 -0.0278278054 -0.6207604563
C 1.1314202952 -1.3369666860 -0.4961038724
C 2.4692954571 -1.5918277496 -0.2441878274
C 3.3361601852 -0.5119817699 -0.1212704980
C 2.9143236023 0.8063524801 -0.2462318631
C 1.5726925230 1.0421791072 -0.4976801166
Cl 1.0009198364 2.6761872383 -0.6638291298
N 4.7580039015 -0.7653352297 0.1486308783
O 5.1213104457 -1.9323982213 0.2558716552
O 5.5062785920 0.2017993543 0.2528178000
H -2.9169062299 -1.9174363476 1.3606794144
H -2.0716927720 -2.4254904562 -0.1407070210
H -3.8596857633 -2.3488407109 -0.1017632772
H -3.6409464944 3.4401934292 -0.3223112239
H -4.3545830126 1.9041223112 0.2600795421
H -3.1690488589 2.7922196471 1.2794293725
H 0.4196038559 -2.1481300091 -0.5995783602
H 2.8323423943 -2.6060390316 -0.1430157662
H 3.6140505152 1.6260210155 -0.1484878911
