42
CONF6
C 0.4166256931 -2.5029213360 0.4620299647
C -0.6223823451 -2.0594686866 -0.5636608083
C -1.9920386247 -2.7301938264 -0.2929481019
C -2.6652516303 -1.7748996106 0.6595028569
C -2.0703538344 -0.5152722534 0.5804742648
C -0.9560762858 -0.5368351338 -0.4375086769
N 0.1417952240 0.3297288594 -0.0652798531
C 1.1119758548 0.7351658139 -0.9169911804
N 2.1365579392 1.4297683916 -0.3613554710
C 3.0600008785 1.8125857891 -1.2380240212
N 3.0631060990 1.5875374145 -2.5506731762
C 1.9819736297 0.9085911218 -2.9826468851
N 0.9796420291 0.4463477831 -2.2186966553
N 1.9227798064 0.6378621433 -4.3103803087
C 4.2584499294 2.5342821336 -0.6588639626
C 5.4632252242 1.6177723628 -0.5733739353
F 4.5842651493 3.6285454210 -1.4716702566
C -2.5171200782 0.5424021577 1.3565124104
C -3.5839108108 0.3477079758 2.2436064278
C -4.1723156510 -0.9176430946 2.3179745684
C -3.7244191088 -1.9794437130 1.5306247987
C -4.0938193749 1.4895990239 3.0807366541
H 1.3731903377 -1.9942362031 0.3113295825
H 0.5920363201 -3.5797778391 0.3799493509
H 0.0736045322 -2.2947267559 1.4827626490
H -0.2555440425 -2.2776174249 -1.5711452303
H -2.5753562495 -2.8090685915 -1.2207247705
H -1.8900502567 -3.7428955189 0.1116111502
H -1.3345299083 -0.1860481222 -1.4072630287
H 0.3394579780 0.4678004001 0.9139936221
H 1.0576362238 0.2910319637 -4.6861340638
H 2.5658419444 1.1213616894 -4.9131207061
H 3.9822506899 2.9287021095 0.3249475389
H 5.2401213576 0.7686356143 0.0796841557
H 5.7123378387 1.2454502914 -1.5704985526
H 6.3173613954 2.1633986829 -0.1639213091
H -2.0466096601 1.5203467515 1.2801180365
H -4.9934926173 -1.0773872687 3.0113662255
H -4.1949893762 -2.9551266716 1.6137991793
H -4.6995688982 2.1758087661 2.4774866291
H -4.7175275953 1.1320952640 3.9037019597
H -3.2688782343 2.0710336284 3.5033624479
