43
CONF21
C 5.9114532870 -1.7926931441 -0.4083008836
O 6.1697607464 -0.4374904066 -0.7984368630
C 5.1120140288 0.4216438514 -0.8193242448
C 3.8098833911 0.0569202183 -0.4871221008
C 2.8562258658 1.0734778654 -0.5667955238
C 3.1635387172 2.3998165332 -0.9538556162
C 4.4829470533 2.7353704732 -1.2814829028
C 5.4404928523 1.7434335924 -1.2115851232
N 2.0210594328 3.1820548996 -0.9279713315
C 1.0741740237 2.3524568510 -0.5385695137
N 1.5066334325 1.0733471622 -0.3111414645
S -0.6466488770 2.8924006289 -0.4634175947
O -1.3621480995 2.3027080899 -1.6816846955
C -1.1862601471 1.8477339835 1.0340095591
C -1.6922624904 0.5084760615 0.6091588469
N -0.7650950815 -0.4466255780 0.4362868134
C -1.1530868661 -1.6633100327 0.0475544426
C -2.4811683228 -2.0166370627 -0.1716509967
C -2.8728113981 -3.3960241188 -0.6031942570
C -3.4341141435 -1.0087369062 0.0119046777
O -4.7493974001 -1.3078134284 -0.2408295065
C -5.5262955975 -1.5584664922 0.9527070973
C -3.0599781177 0.2896858047 0.3825744698
C -4.0768553050 1.3869630329 0.5078364565
H 5.2050877510 -2.2706232118 -1.0973098101
H 6.8736856454 -2.3028765049 -0.4554391638
H 5.5185468487 -1.8371498067 0.6142135007
H 3.5374863824 -0.9456370176 -0.1840997300
H 4.7451183688 3.7448206833 -1.5811030991
H 6.4760182882 1.9554731855 -1.4564895757
H 0.8929640645 0.3068399532 0.0157594758
H -0.3173312608 1.7736922694 1.6917798775
H -1.9549026425 2.4530663114 1.5149862208
H -0.3661155375 -2.4028695958 -0.0925009557
H -3.3849517966 -3.3701948163 -1.5702713861
H -3.5635815968 -3.8525031745 0.1127747123
H -1.9908698512 -4.0341783194 -0.6909879140
H -5.5255157186 -0.6838276525 1.6124460932
H -6.5427803897 -1.7667442615 0.6163889141
H -5.1256287701 -2.4249462494 1.4907224654
H -5.0205914591 1.0886066662 0.0494657517
H -4.2695413650 1.6340794510 1.5582843713
H -3.7291592314 2.2962808206 0.0104377991
