45
CONF12
C 2.3413860412 -1.2693457236 3.1307568435
N 2.0021024303 -1.2419388083 1.7093642275
C 3.0795895216 -1.8524000084 0.9332797346
C 0.7395912493 -1.9372619806 1.4431650553
C -0.4833430309 -1.2517563143 2.0479994555
C -0.6034294158 0.2297151426 1.6940472235
N -0.6025540996 0.4729259600 0.2464061245
C -0.2165032960 1.7586695684 -0.2071157888
C -0.2641279144 2.8345669555 0.7005637041
C 0.1252895045 4.1175713198 0.3433514225
C 0.5628653966 4.3727890736 -0.9505294839
C 0.6041217074 3.3206581094 -1.8551389461
C 0.2326609588 2.0129809945 -1.5253683112
C 0.3781625696 0.9939154777 -2.6390842981
C 0.2883644129 -0.4808502810 -2.2428152579
C -1.0873521340 -0.8146873846 -1.7599390124
C -1.9732162448 -1.5852786766 -2.5126056143
C -3.2593914261 -1.8570478329 -2.0549804788
C -3.6753390040 -1.3404131250 -0.8309923902
C -2.8098338911 -0.5563324963 -0.0755572703
C -1.5158737436 -0.2882130570 -0.5329642532
H 1.5879613787 -0.7386474187 3.7202749681
H 3.3010130592 -0.7659812007 3.2863702279
H 2.4250854350 -2.3015750660 3.5262184184
H 3.2497027711 -2.9141830714 1.2014966966
H 2.8413725741 -1.8061709950 -0.1346149787
H 4.0134458705 -1.3054120294 1.1002335987
H 0.6106652043 -1.9853012084 0.3553515323
H 0.7759201347 -2.9851082988 1.8075028903
H -1.3700135695 -1.8039631729 1.7191627072
H -0.4711287415 -1.3229899286 3.1418304068
H -1.4911497345 0.6501257865 2.1969052540
H 0.2720435989 0.7475962602 2.0960177349
H -0.6347675985 2.6709076183 1.7043410483
H 0.0702821604 4.9153859204 1.0777038409
H 0.8705246407 5.3688328443 -1.2509910086
H 0.9570776194 3.5050196474 -2.8673508317
H -0.3886863936 1.1908316549 -3.4010019882
H 1.3438151760 1.1749390308 -3.1264606276
H 1.0256633362 -0.6888493632 -1.4578911449
H 0.5384324481 -1.0989137685 -3.1107827403
H -1.6394847404 -1.9903476487 -3.4644525965
H -3.9309395706 -2.4692708295 -2.6482612887
H -4.6779498417 -1.5391549643 -0.4650762578
H -3.1420550998 -0.1460361134 0.8724919550
