31
CONF25
C -1.6990187258 -1.1555725149 -0.4368033571
C -0.1647538923 -1.4046460963 -0.1605361761
C 0.7758902661 -0.1578486111 -0.2372301961
C 2.2971279482 -0.5295781481 -0.3665731248
C 3.2461960506 0.6499739288 0.0055190699
F 2.7842828472 1.8105630486 -0.5067217259
F 3.3286509109 0.7692173629 1.3490779062
S 5.0319156161 0.4011272083 -0.6549658894
O 5.4728939860 -0.8846326282 -0.1309997722
O 5.0154850302 0.7651905958 -2.0644538268
N 5.8839390200 1.5949370231 0.1509267762
F 2.5467398148 -0.8854733794 -1.6446941594
F 2.5735241297 -1.5677563425 0.4496543904
F 0.4320806753 0.5925986222 -1.3057220367
F 0.6060545148 0.5731708372 0.8922261799
F -0.0403815472 -1.9768026132 1.0537608198
F 0.2337580542 -2.2907203271 -1.1054356759
C -2.4098095141 -0.0804828612 0.4479353689
C -3.9750027370 -0.1711676897 0.4006919626
C -4.6961363507 1.1311504145 0.8815042791
F -4.5614756943 2.1114951371 -0.0175141612
F -4.1933351712 1.5380373618 2.0558912841
F -6.0001473769 0.8687828570 1.0361314954
F -4.3824638884 -0.4176326051 -0.8649527044
F -4.3750679877 -1.1820677247 1.1995470512
F -2.0300446940 1.1460808695 0.0165461026
F -2.0211732918 -0.2331535141 1.7330165429
F -1.8486757823 -0.8253553257 -1.7350967100
F -2.3055579361 -2.3482391735 -0.2162301143
H 5.8929174740 1.4706070838 1.1581603942
H 5.6214597713 2.5314553396 -0.1399825292
