45
CONF209
O -1.0529523331 0.3341164246 -2.7437268230
C -2.2415414405 -0.4477841384 -2.7232744997
C -2.7277764631 -0.7491501197 -1.3216743392
O -1.7454541272 -1.5907643052 -0.6460503286
C -1.4815379164 -1.0967712074 0.6538742793
C -1.3869125509 -2.2705820869 1.6218373295
O -1.1707885857 -1.7939678727 2.9473477864
O -0.2847259364 -0.3060926305 0.6910766240
C 0.8844781858 -0.8853676257 0.1462583501
O 1.2736442436 -0.2023769706 -1.0381133626
C 1.5995736621 1.2008224093 -0.8447365149
C 1.9689172609 1.7404922455 -2.2159055240
O 3.1290262926 1.1106912312 -2.7626625997
C 2.7371712082 1.3373315728 0.1734899757
O 2.9643303667 2.7153520596 0.4872588242
C 2.3661934740 0.6369502507 1.4699174694
O 3.4581558793 0.6122535328 2.3925220671
C 2.0155307687 -0.8093632527 1.1722729429
O 1.6018204359 -1.5123141263 2.3450593336
C -2.6461081159 -0.1372911878 0.9673262319
O -2.3867113795 0.8566827161 1.9342561687
C -2.9249672633 0.4633543000 -0.4041993940
O -4.1889590451 1.0896938031 -0.5527548233
H -0.3789763608 -0.1174323801 -2.2064051298
H -3.0166709353 0.1274270263 -3.2422557358
H -2.1026004694 -1.3965280451 -3.2632620892
H -3.6718369035 -1.3119582325 -1.3891742755
H -0.5984743605 -2.9688344101 1.3075804682
H -2.3413851210 -2.8052574073 1.6091117756
H -0.2391833216 -1.5086156598 2.9716872069
H 0.7143791782 -1.9211878026 -0.1633807592
H 0.7145024224 1.7392881088 -0.4753608656
H 2.2002843983 2.8058367580 -2.1227949821
H 1.1084012898 1.6380187050 -2.8896607802
H 2.9193408820 0.1753059887 -2.8815440563
H 3.6472490513 0.8764510425 -0.2337856318
H 3.6258469709 3.0626163163 -0.1228261938
H 1.4976071757 1.1423403602 1.9202603475
H 3.6600827740 1.5289377171 2.6213978850
H 2.8951451358 -1.3045230017 0.7333961005
H 2.2813318688 -1.3708367264 3.0189747211
H -3.5083254993 -0.7610349503 1.2617479911
H -2.1174850877 0.3959980843 2.7425838378
H -2.1747183711 1.2316571476 -0.6194742258
H -4.8749203374 0.4464164559 -0.3262145757
