39
CONF13
C -3.0438506269 3.8191275881 -0.1590297613
N -3.0287881660 2.3900939983 -0.4467225288
C -2.0336822376 1.5188646683 -0.1977298533
C -2.4590242231 0.2774007506 -0.6638315215
C -3.7513590370 0.5340326589 -1.1821584062
N -4.0879370951 1.8153888162 -1.0437710892
C -4.6853487363 -0.4306783419 -1.8327367593
F -5.9823740768 0.0173788647 -1.7395101554
F -4.4074622958 -0.5122195916 -3.1911225250
C -1.7658681873 -1.0187784304 -0.6813860704
O -2.1985615444 -1.9709267894 -1.3354333848
N -0.6215884575 -1.0774175871 0.0696653488
C 0.2934992969 -2.1494475601 0.1089749685
C 1.6725097355 -1.8617311407 0.1701836777
C 2.5784636612 -2.9168946470 0.3143008317
C 2.1044115320 -4.2136438299 0.3561058964
C 0.7570693699 -4.5189158605 0.2785511560
C -0.1506580205 -3.4728087418 0.1684274438
F 3.0001643344 -5.2268914909 0.4757277259
C 2.1862613973 -0.4749663196 0.0862278748
C 3.0842666415 -0.0077707612 1.0488088786
C 3.5961906463 1.2819296653 0.9667929504
C 3.2157851052 2.1231708866 -0.0802641322
C 2.3259059997 1.6621660008 -1.0463592323
C 1.8157223746 0.3752490871 -0.9636147575
Cl 3.8386782601 3.7474073027 -0.2053150110
Cl 4.7086644516 1.8246348718 2.1980838507
H -3.9113488940 4.0564379802 0.4607920688
H -3.0945048903 4.3822107300 -1.0942885070
H -2.1275626971 4.0719298977 0.3749260605
H -1.1152525152 1.8439131380 0.2715180176
H -4.6293930421 -1.4402887640 -1.4211015734
H 0.4234217281 -5.5495962098 0.3239002068
H 3.3791715010 -0.6437633975 1.8762296637
H 2.0429852740 2.3138047542 -1.8653188934
H 3.6454227954 -2.7266589253 0.3587542410
H -1.2119053402 -3.6813739076 0.1488852090
H 1.1368238887 0.0250089670 -1.7337093856
H -0.3119453713 -0.2230764469 0.5096760901
