59
CONF298
C 7.2765948034 -2.2544107460 -1.3099353787
C 8.0039932108 -2.3573568576 0.0335047003
C 6.8609574269 -2.6942359320 0.9948484012
C 5.6648172669 -1.8303392741 0.5183790442
C 6.0095709939 -1.4575769375 -0.9617709884
C 5.5106070771 -0.5773774179 1.3804481896
C 4.3443404458 0.2814770188 0.9717704455
O 4.3360847411 1.4945985356 1.1242507090
N 3.2338327654 -0.3704902878 0.4253302177
C 3.1322766713 -1.7586664088 0.2860648204
O 2.0867302609 -2.2664409954 -0.0942662903
C 4.3448893338 -2.5876106496 0.6254687610
C 2.0556935634 0.4462496286 0.0796785475
C 1.1363977756 0.6367440851 1.2861945400
C -0.0456964226 1.5634506366 0.9915037391
C -0.9919685968 1.0013082963 -0.0688034935
N -2.1973920506 1.8216110000 -0.2562496659
C -3.1480601281 1.6384096095 0.8493215487
C -4.3876976664 2.5054921762 0.6451326807
N -5.0231483994 2.1824958101 -0.6324607188
C -4.0887965861 2.3462393982 -1.7467775792
C -2.8540874044 1.4772596378 -1.5248656689
C -6.0801374636 1.3182506880 -0.7078118547
N -6.4289977328 0.8623988658 -1.9360145817
C -7.4985259507 0.0717168403 -1.9924009217
C -8.2372341907 -0.2928788405 -0.8725993600
C -7.7880887151 0.2208008552 0.3385575286
N -6.7247055845 1.0146815623 0.4456815268
H 7.0083743644 -3.2602165801 -1.6567982762
H 7.8703149794 -1.7779623660 -2.0958016826
H 8.8019140197 -3.1059751117 0.0417233583
H 8.4473365904 -1.3877390065 0.2939248385
H 7.1006137746 -2.5155180455 2.0479528147
H 6.6040465927 -3.7557579866 0.8891117676
H 6.2198722704 -0.3837471642 -1.0330972901
H 5.1793049086 -1.6695261805 -1.6434464669
H 5.3396641857 -0.8651608126 2.4282144593
H 6.4027844009 0.0543771580 1.3557901311
H 4.3233554994 -3.4638481070 -0.0299722185
H 4.2032936939 -2.9527181479 1.6535920118
H 1.5421873481 -0.0658021538 -0.7350307710
H 2.4186606076 1.4123064334 -0.2787219544
H 0.7684928471 -0.3431215057 1.6149309478
H 1.7257474051 1.0567971686 2.1087161930
H 0.3214517356 2.5437454091 0.6614856521
H -0.5872859741 1.7271626921 1.9289032942
H -1.2588665626 -0.0442061760 0.1878445692
H -0.4743616542 0.9660954818 -1.0345829462
H -3.4605051801 0.5773064090 0.9341096700
H -2.6742939588 1.9237336678 1.7936836931
H -4.0950110762 3.5627719570 0.6180581805
H -5.0949033270 2.3560953272 1.4595435447
H -4.5778391660 2.0830223539 -2.6833929144
H -3.7914386754 3.4019632549 -1.7845031399
H -3.1580206961 0.4107080845 -1.5482408397
H -2.1457992519 1.6430551181 -2.3450089299
H -7.7746662300 -0.2904130403 -2.9824701174
H -9.1025195633 -0.9402178061 -0.9386413283
H -8.3027419517 -0.0184827690 1.2688778667
