45
CONF753
O 2.7524769050 -1.5249045188 2.7525767342
C 2.6405738647 -0.1052007141 2.8208394884
C 2.3957103584 0.5352845627 1.4671347551
O 3.5660946555 0.3394263954 0.6239333416
C 3.2465832423 -0.4842089212 -0.4748253234
O 3.4824413992 -1.8491202507 -0.1165886811
C 4.1875206510 -0.1202075055 -1.6159761796
O 4.0834830028 1.2472928526 -1.9956994053
C 1.7544071720 -0.2416356977 -0.7325965241
O 1.2446400576 -1.3500835571 -1.4494118692
C 1.2076170610 -0.0479425457 0.6914561750
O 0.1193044167 0.8785353795 0.8032647909
C -1.1334186116 0.3261688535 0.5638252860
O -1.2424208171 0.0647972653 -0.8378637155
C -2.4901196155 -0.5517777703 -1.1909214066
C -2.3902150138 -0.9165191115 -2.6602547074
O -1.3074333469 -1.8243035716 -2.8985920459
C -3.6558369822 0.3813105164 -0.8807441071
O -3.5774241314 1.5206565957 -1.7343403245
C -3.5831310076 0.7821654324 0.5917571760
O -4.6068526761 1.7487722786 0.8237622242
C -2.2070294769 1.3370938733 0.9642389252
O -2.1653530967 1.6702396277 2.3517352992
H 3.2801567848 -1.7400353217 1.9646709746
H 1.7926493695 0.1237016055 3.4772088634
H 3.5451157857 0.3420610127 3.2597549766
H 2.2555800465 1.6151446523 1.5978797215
H 2.7597771273 -2.3732455855 -0.4997632376
H 3.9247316669 -0.7215801322 -2.4913636359
H 5.2093403848 -0.3819988009 -1.3042336254
H 4.2863742205 1.7736548128 -1.2105337979
H 1.6428834242 0.6975724987 -1.2914458685
H 0.3085518744 -1.1923113280 -1.6693876597
H 0.9078136122 -1.0216117402 1.1033312784
H -1.2583349496 -0.6246689285 1.1204253339
H -2.6261730967 -1.4716064262 -0.5954095021
H -3.3471902412 -1.3372120657 -2.9960452254
H -2.1745130892 -0.0209612730 -3.2477448679
H -1.5516477100 -2.6846385835 -2.5328607252
H -4.5977100565 -0.1654674943 -1.0513241982
H -4.1769006380 2.1842760939 -1.3646848769
H -3.7664507567 -0.1224704851 1.1989119106
H -4.4128384591 2.1758181987 1.6702548251
H -2.0181172139 2.2694869359 0.4211176136
H -2.3047157947 0.8602529754 2.8636657369
