47
CONF37
C 5.5274343825 0.2046707410 2.0126163197
C 4.8735711678 0.3935286853 0.7025506707
C 3.5652148342 0.4341252867 0.2909730634
C 3.6451741086 0.6418204502 -1.1237507039
N 4.8958576633 0.7239667753 -1.5240793573
O 5.6763162307 0.5497985129 -0.3641875766
C 2.5616330416 0.8079938949 -2.1052233100
C 1.5022566190 1.6848096538 -1.8406471692
C 0.4831760645 1.8452495019 -2.7725401684
C 0.5125502653 1.1344112425 -3.9712635831
C 1.5680152875 0.2655063277 -4.2398018977
C 2.5915105343 0.1006060370 -3.3120210477
C 2.4038907989 0.2372317679 1.1786770671
O 2.4278304304 0.5736929211 2.3641240303
N 1.3257926612 -0.3702806656 0.6022317730
C 0.0728787994 -0.5109754333 1.2696857061
C -1.1862275617 0.2142279248 0.6786086830
N -1.7972203069 -1.1074168632 0.4875781440
C -0.7320680786 -1.8106469803 1.0341655873
O -0.5619164529 -2.9901594303 1.2372186087
C -3.2111673259 -1.2496010319 0.7511758895
C -3.5197687348 -0.3064073095 1.9742456100
S -2.3434069588 1.1463815983 1.7641795118
C -4.9516026332 0.2170304574 1.9950997458
C -3.2013927614 -1.0552564508 3.2686078917
C -4.0714260069 -0.9467195700 -0.4661605713
O -5.1311279249 -1.4930083821 -0.6803166857
O -3.5382598223 0.0008734615 -1.2521656000
H 6.4962001178 -0.2833363470 1.8852868480
H 4.8886226321 -0.3915489068 2.6654387976
H 5.6877777848 1.1754372659 2.4949121867
H 1.4838643245 2.2450559352 -0.9105125945
H -0.3336751548 2.5286828327 -2.5633687530
H -0.2869440333 1.2579839606 -4.6948417106
H 1.5921081118 -0.2905233709 -5.1715495654
H 3.4082452143 -0.5857732571 -3.5096671197
H 1.3754616271 -0.6277526952 -0.3739001554
H 0.1988486059 -0.3165704144 2.3384427051
H -1.0026516350 0.7741293560 -0.2419463145
H -3.4262693709 -2.2826504594 1.0401767453
H -5.0976740563 0.8624851910 2.8654579062
H -5.6455218552 -0.6258788351 2.0781028305
H -5.1942510271 0.7895151882 1.0960561205
H -3.2958377666 -0.3798950887 4.1226368492
H -3.9085619138 -1.8828902827 3.3958134967
H -2.1857636757 -1.4610484707 3.2672582272
H -4.1414969544 0.1591254710 -1.9999519249
