30
CONF18
C 4.1310627055 0.5266632528 0.8621771324
C 3.2452079132 -0.5305382335 0.2065708952
C 1.9080363118 0.0332030906 -0.2736158982
C 1.0084986214 -1.0277384644 -0.9071078818
C -0.2871788126 -0.4767080084 -1.5110805888
C -1.2065643626 0.2358471762 -0.5222395493
C -1.6728312679 -0.6114791818 0.6682424222
C -2.8158039149 0.2197089176 1.2615280697
C -3.5340422539 0.8354124162 0.0341831546
C -2.5373084433 0.6970449976 -1.1459311214
H 3.6375291610 0.9639837975 1.7368828921
H 5.0851648480 0.1046925803 1.1924553805
H 4.3488632690 1.3417653127 0.1635376165
H 3.0569611800 -1.3475185494 0.9157433933
H 3.7740925439 -0.9799158048 -0.6442325767
H 1.3944917766 0.5012753810 0.5768307469
H 2.0916636612 0.8375958028 -1.0006112645
H 0.7683260363 -1.7925990628 -0.1564325460
H 1.5719355335 -1.5440862149 -1.6958746503
H -0.8476035792 -1.3049352845 -1.9673975261
H -0.0379186744 0.2144677711 -2.3286372091
H -0.6912958003 1.1213075948 -0.1217712255
H -0.8799299526 -0.8215601022 1.3933878408
H -2.0498090124 -1.5759815859 0.2979832934
H -2.3921562249 1.0151054676 1.8856209660
H -3.4883379738 -0.3650621215 1.8958748052
H -3.8063406393 1.8787415616 0.2180084211
H -4.4641898151 0.3016076816 -0.1828789634
H -2.8844955136 -0.0728750583 -1.8463252597
H -2.4260280030 1.6225748544 -1.7192324761
