48
CONF14
C 1.8308444628 0.3782019704 2.5404090602
C 1.0534884756 1.3313444867 1.6350122599
C 1.0162092028 0.8406615859 0.1855577777
C 0.2988268665 1.7457874423 -0.8253106758
O -0.0307361574 1.3594997989 -1.9236764400
O 0.1647477895 2.9965718328 -0.3626606702
C -0.4945234475 3.9751223202 -1.2218481138
C -1.5906460978 4.6443454557 -0.4167925506
C -2.7533594763 3.6914873670 -0.0862887389
C -3.5292053135 3.3035942844 -1.3079847085
C -3.5621369931 2.0790819846 -1.8266139692
N 0.4923508091 -0.5254075565 0.0486782393
C 1.2405043734 -1.4026940153 -0.8782439004
C 2.5815003339 -1.7535241024 -0.3523739982
C 3.8465029377 -1.4229186917 -0.7334346699
C 4.7331768441 -2.0452776150 0.1985155991
C 3.9473395862 -2.7087881622 1.0847370066
O 2.6300585248 -2.5458410491 0.7645986059
C -0.8398306624 -0.6675085213 0.3174507585
O -1.5865753551 0.2638854616 0.5685919290
N -1.3330895447 -2.0048543569 0.3499879671
C -2.6499310763 -2.3413943000 0.0759826376
C -2.7531829089 -3.6707742180 0.3642759796
N -1.5527428516 -4.1663944256 0.8404738926
C -0.7237483695 -3.1556977961 0.8240490058
H 1.3351047793 -0.5934872645 2.6178211876
H 2.8438090134 0.2023814963 2.1589572319
H 1.9162622872 0.7932241868 3.5484515606
H 0.0340927067 1.4744576496 2.0020700277
H 1.5289997054 2.3163745405 1.6299263502
H 2.0576000370 0.7866956819 -0.1634174540
H -0.8890341513 3.4633924448 -2.1033581524
H 0.2778646395 4.6897596024 -1.5233886828
H -1.1636104198 5.0512782566 0.5072630562
H -1.9598532150 5.4969267172 -1.0021402729
H -3.4192303320 4.1961137548 0.6255701562
H -2.3660740010 2.7953570795 0.4104387725
H -4.0767492195 4.1085186859 -1.8017795577
H -4.1283170105 1.8603706805 -2.7266566478
H -3.0135569029 1.2629447844 -1.3639237239
H 0.6484582841 -2.2989054491 -1.0758297634
H 1.3652273294 -0.8732091720 -1.8307669438
H 4.1115072692 -0.8098207944 -1.5820363396
H 5.8113757960 -2.0032125881 0.2056464834
H 4.1481919278 -3.3162391075 1.9525298926
H -3.3482479761 -1.6041290839 -0.2854260204
H -3.6215493877 -4.3050040186 0.2602048022
H 0.3031627305 -3.1615365701 1.1629792132
