34
CONF5
C 1.8532742613 0.4767960652 -1.2681740577
C 2.6591139571 -0.7050962642 -1.7548779053
O 3.9849769984 -0.5657825510 -1.1458611280
P 4.2221878829 -0.2504483995 0.4124343449
O 3.9922472405 -1.6172651295 1.2183622151
O 5.5547270414 0.3097333940 0.6963207572
O 3.0333309493 0.7591173589 0.8491255712
C 1.7602861407 0.4583332394 0.2480054775
C 0.6766995606 1.4997567397 0.5121069523
O 1.1743650856 2.8273089084 0.4445930845
C -0.2270697090 1.3020747864 -0.7412494541
O 0.4831782737 0.4327531905 -1.6559526408
N -1.5246464453 0.7361034571 -0.4843806927
C -2.7247737464 1.2261554317 -0.9677337563
N -3.7607685132 0.4962963786 -0.6337970675
C -3.2204744499 -0.5428911742 0.1036388191
C -1.8348243202 -0.4202031812 0.2084836379
N -1.0060570188 -1.2511738810 0.8510599282
C -1.6732068383 -2.2668108642 1.4122624665
N -2.9889675281 -2.5152314769 1.3937595126
C -3.8028452329 -1.6585792472 0.7385758794
N -5.1239633796 -1.8977364536 0.7164610991
H 2.3326638923 1.4109108134 -1.6006473604
H 2.8307771316 -0.7014303576 -2.8318694351
H 2.2051524674 -1.6545782889 -1.4473565593
H 3.2581648308 -2.1801002724 0.9274348008
H 1.3914686562 -0.5183828974 0.5871592209
H 0.1278201018 1.3180998722 1.4428428973
H 1.7955990573 2.9483697077 1.1755183517
H -0.3873494622 2.2818787926 -1.2069108581
H -2.7512378981 2.1355706230 -1.5562783724
H -1.0673614160 -2.9903503431 1.9569200405
H -5.7476966277 -1.2798600504 0.2255044587
H -5.4947924564 -2.7139922361 1.1745198942
