49
CONF30
C -4.4761854504 1.7736902556 0.5361005360
C -3.1114460558 1.1313231094 0.6544992234
C -2.3585648688 0.6980778260 -0.5709218925
C -3.0650074674 -0.3528809246 0.2741834469
C -2.3088368091 -1.4015144893 0.9784766815
O -2.7797567196 -2.4504002805 1.3654159126
O -0.9915588199 -1.0856570316 1.1318004685
C -0.1711968133 -2.0761285760 1.7908107297
C 0.0233062492 -3.2183466713 0.8869645941
N 0.2188729280 -4.1123709641 0.1822858502
C 1.1504261308 -1.4258250121 2.1265727148
C 1.8204028394 -0.7025572880 1.1393550491
C 3.0377199569 -0.1087621295 1.4553448793
C 3.5857167410 -0.2365572699 2.7334348552
C 2.9031163105 -0.9606376880 3.7003105632
C 1.6799345764 -1.5618948166 3.4056682714
O 3.7442003053 0.6725298535 0.5710927663
C 3.5037284312 0.5445853105 -0.7921573093
C 3.6697159966 -0.6801654689 -1.4341129088
C 3.4978782792 -0.7450161314 -2.8126622492
C 3.1752151238 0.4013207863 -3.5393800004
C 3.0200904191 1.6192742870 -2.8797178694
C 3.1792409161 1.6960965519 -1.4970559444
C -2.8258132186 0.9479586488 -1.9687836886
C -2.0833923742 0.1353309872 -3.0398746883
Br -2.8199701844 0.4925660054 -4.8314712831
Br -2.3717877571 -1.7860190571 -2.6547604873
Br -0.1451641012 0.4746960841 -3.0548929192
Br -2.6174871674 2.9044594067 -2.3497956429
C -2.2971775956 1.6551907532 1.8157323970
H -5.0597023099 1.3792980471 -0.2989610230
H -4.3702896127 2.8550954375 0.4058683310
H -5.0415371264 1.5950446219 1.4563363286
H -1.2784542031 0.7217843136 -0.4589021745
H -4.0052546287 -0.7366919462 -0.1080393875
H -0.6699928960 -2.4391555111 2.6955256463
H 1.3920649367 -0.5969301030 0.1484099599
H 4.5366093345 0.2378506799 2.9513632303
H 3.3270280687 -1.0575374715 4.6943142431
H 1.1455449732 -2.1267105598 4.1623845447
H 3.9305959874 -1.5636672061 -0.8603595570
H 3.6253488465 -1.6946725991 -3.3223453856
H 3.0477126344 0.3450835206 -4.6154874736
H 2.7706307901 2.5150840622 -3.4397282910
H 3.0594149735 2.6339970739 -0.9652249354
H -3.8936716042 0.7628433410 -2.0998690716
H -1.3022116443 1.2102707188 1.8605832057
H -2.1848452744 2.7395282593 1.7116614702
H -2.8152119351 1.4567809542 2.7600087013
