31
CONF6
C 5.1407397539 0.5653663539 -2.1029908366
O 3.9318060848 0.2581493810 -1.3566431018
C 3.0623473512 1.2652400184 -1.2377251129
O 3.1566532623 2.3444382882 -1.7793811669
C 1.8691970068 0.8509022761 -0.4273502661
C 1.9118629929 0.6006576122 0.9499414944
C 0.7831346379 0.1764162302 1.6438698179
C -0.4144820590 0.0029840006 0.9727069465
C -0.4630761517 0.2578493454 -0.3987498789
C 0.6701341815 0.6798897087 -1.0978563902
O -1.5985509503 0.1344819600 -1.1475460228
C -2.7229925087 -0.4232628119 -0.5621695013
C -2.8473567428 -1.8069789864 -0.4299370907
C -4.0076697788 -2.3640174071 0.0942131824
C -5.0357938424 -1.5094321855 0.4742704747
C -4.9348879418 -0.1292520873 0.3440322386
C -3.7650336991 0.4086012954 -0.1781856775
Cl -6.5043703389 -2.2038217001 1.1332726138
Cl -1.5401815690 -2.8470386523 -0.9277209866
N 3.1355572581 0.8461579394 1.6984919420
O 3.2364800239 0.3646761732 2.8238454754
O 4.0015438010 1.5434951083 1.1678276205
H 4.8868558979 0.8422656745 -3.1283702692
H 5.7289455986 -0.3504495540 -2.0828503432
H 5.6757805954 1.3827522910 -1.6139961160
H 0.8426646253 0.0090540395 2.7121212125
H -1.2996089846 -0.3119489361 1.5127540176
H 0.6042596500 0.8535062040 -2.1664346210
H -4.1033095365 -3.4380780581 0.1962832537
H -5.7511086058 0.5163511963 0.6448327539
H -3.6495406046 1.4810453037 -0.2930556960
