12
CONF1
Br -2.9547743500 -1.3587027427 -0.6534502872
C -1.1891719306 -0.6851680782 -0.3702189978
C -0.9760506768 0.6846945370 -0.4690688535
C 0.3185295177 1.1435077303 -0.2564144634
Br 0.6566117496 3.0199143563 -0.3816828686
C 1.3777968510 0.2952450627 0.0436274505
C 1.0994067735 -1.0638150109 0.1282758027
Br 2.5261374405 -2.2662011897 0.5400065793
C -0.1728694471 -1.5854838910 -0.0732379216
H 2.3776197074 0.6770112395 0.2043570536
H -0.3641319182 -2.6482507600 -0.0015636450
H -1.7845167199 1.3654909670 -0.7017650286
