35
CONF10
C -5.7878867568 0.9129628430 0.1958226377
C -4.4552100423 0.1749467169 0.1717492884
C -4.0737746286 -0.2303588627 1.5931650726
O -3.3288032857 0.3882391701 2.3169371734
O -4.7231506723 -1.3533133103 1.9533275189
O -3.4910274937 1.0747406848 -0.3638404246
C -2.2457493502 0.5903746872 -0.6698369134
C -1.3520222132 1.5352101990 -1.1852293109
C -0.0676075886 1.1565285635 -1.5425486310
C 0.3193484062 -0.1678903342 -1.3769357999
C -0.5532188063 -1.1131303630 -0.8700627803
C -1.8482637458 -0.7380922755 -0.5118297925
O 1.5851561421 -0.5838673134 -1.8149334983
C 2.6586230530 -0.3554430004 -1.0135017020
N 2.4833809707 0.1975455095 0.1771944467
C 3.5704716788 0.3975753432 0.9337163679
C 4.8490775399 0.0517812812 0.5204799292
C 5.0129349591 -0.5377334668 -0.7394169381
C 3.9031468068 -0.7455644126 -1.5281528039
C 6.0295864539 0.2573568022 1.4105957464
F 5.8069136763 1.1951723296 2.3599485157
F 6.3809526476 -0.8841794150 2.0680894879
F 7.1282230465 0.6442822947 0.7138771385
H -6.5687125785 0.2613408471 0.5938816691
H -5.7123153488 1.8075414020 0.8199255745
H -6.0552069617 1.2054775954 -0.8221035188
H -4.5362049394 -0.7241925463 -0.4527849410
H -4.5095833484 -1.5490848564 2.8823009404
H -1.6812480671 2.5621483802 -1.3030739181
H 0.6327168051 1.8808732819 -1.9449203132
H -0.2276072818 -2.1413339982 -0.7528501990
H -2.5167346155 -1.4946178081 -0.1183416920
H 3.4034153590 0.8546775179 1.9057717261
H 5.9982865589 -0.8220247820 -1.0934685609
H 3.9720936260 -1.1918539150 -2.5129516015
