21
CONF70
C 1.1545683315 -0.9701440947 -0.3792238437
C 0.0117181106 -0.0198152326 0.0172162820
C 0.4543083997 1.4464321907 -0.1222826131
O 1.7283734026 1.7136234720 0.4703965959
C -1.2094165714 -0.2097692847 -0.8982107342
O -1.8835546094 -1.4546704214 -0.6948615562
C -0.3459880031 -0.3568155933 1.4744275750
O -1.6490250341 0.0949605363 1.8694300922
O 1.9136465804 -0.5207576475 -1.5107807048
H 0.7426027467 -1.9736038405 -0.5549761787
H 1.8758404371 -1.0425416757 0.4423515572
H 0.4589529772 1.7299627601 -1.1846273364
H -0.2648663670 2.1004735993 0.3847886538
H 2.3877501953 1.2942898864 -0.0992042910
H -1.9056649134 0.6303200521 -0.7627394777
H -0.8898578724 -0.2004865252 -1.9471623937
H -2.3406474544 -1.3839393421 0.1541390154
H -0.3648532376 -1.4443935037 1.6066263504
H 0.4294796552 0.0495040324 2.1384099562
H -1.6466962643 1.0602188039 1.8857667682
H 1.3433297977 -0.5428478702 -2.2894837063
