11
CONF1
C 0.6734228850 0.8139066285 0.2195446805
N 1.7294363705 0.6273617383 -0.6290085396
N 0.4649330318 1.7274946703 1.0880580391
N -0.4457241653 -0.0550261526 0.0408945987
N -0.4028568595 -1.4120234393 -0.2712818626
O -1.4024325738 -2.0427584590 0.0250973036
O 0.5863115602 -1.8505743077 -0.8479007671
H 1.2279161516 2.3973149797 1.1212562182
H 1.8200656391 -0.2846071857 -1.0551977981
H 2.5860518427 1.0809610583 -0.3580345050
H -1.2117832208 0.1440431920 0.6742386850
