53
CONF2
C -3.2214281021 1.5817246157 1.0796419787
C -1.8945653291 0.8190422124 1.0222260209
N -1.3716862311 1.1244145800 -0.3289930975
C -2.3744973210 1.8709827183 -1.1230928330
C -3.6780013904 1.5802935379 -0.3947257266
N -4.2617688364 0.3086707204 -0.8458560828
C -5.3253596761 -0.1512637416 0.0635026091
C -4.8483285407 -0.3258010287 1.5064062207
C -4.2568866331 0.9839185452 2.0349019038
C -0.0659364690 0.9617395378 -0.6848082708
C 0.5828578206 1.7658531197 -1.6615105527
F -0.1150422493 2.7658110040 -2.2569211612
C 1.8819592090 1.5967724920 -2.0366070881
C 2.6805056698 0.6300287388 -1.4081860264
C 4.0455901969 0.4389277574 -1.8476203649
O 4.5627895445 1.1554626138 -2.7535044242
C 4.7651546899 -0.6309245668 -1.2119678743
C 4.1818039848 -1.3204566598 -0.1783988545
N 2.9318276215 -1.0983727010 0.2666641545
C 2.5413317847 -1.7396242129 1.5234081030
C 2.2809942001 -0.8722646641 2.7094718894
C 3.5243807976 -1.7231705344 2.6572585929
C 2.1081819303 -0.1748815788 -0.3940392368
C 0.7326224745 -0.0666562914 -0.1160558454
O 0.1182431813 -1.0180631203 0.6585085710
C -0.5492278000 -2.0189282069 -0.1415370437
C 6.1529455556 -0.9749423800 -1.5978946149
O 6.6749185395 -0.2097910584 -2.5609562150
O 6.7919729893 -1.8835118432 -1.0880216857
H -3.0177121547 2.6213761298 1.3670638637
H -1.1846430463 1.1459389036 1.7900483445
H -2.0576898725 -0.2550055621 1.1572735724
H -2.1822194379 2.9496129309 -1.1090148054
H -2.3856001677 1.5243026516 -2.1608785450
H -4.4119587242 2.3754889977 -0.5767054614
H -3.5308133173 -0.3999453230 -0.8657951929
H -6.1358862879 0.5916964687 0.0314692437
H -5.7318933037 -1.0913694506 -0.3266161236
H -4.1025790305 -1.1309094759 1.5386967065
H -5.6831925777 -0.6404673938 2.1440129696
H -3.8119373556 0.8382238544 3.0269020473
H -5.0694853075 1.7118642955 2.1571397989
H 2.3129754009 2.2304412159 -2.8029524809
H 4.7444102428 -2.0784403071 0.3540702105
H 1.9280288633 -2.6244379724 1.3937976256
H 1.4631886904 -1.1608364401 3.3598726744
H 2.4158304684 0.1963097868 2.5752715291
H 3.5746783633 -2.6174380631 3.2686576092
H 4.4681267431 -1.2076159562 2.5152057280
H -1.0201487938 -2.7071746645 0.5628710806
H 0.1790734709 -2.5547818673 -0.7621128988
H -1.3119180654 -1.5602055810 -0.7823085378
H 5.9560124664 0.4683837993 -2.8170167957
