55
CONF1
C -1.0249387093 0.2678492920 1.0016746436
C -1.9086069246 -0.0566108664 2.2103121431
C -3.3528890543 0.2239672447 1.7124793069
C -3.2493311085 0.5513776670 0.2004027732
O -3.2270701659 1.9647679161 -0.0404049075
C -4.4189519534 0.0390613661 -0.6164906607
O -4.9919371536 -1.0103199888 -0.3643888560
C -4.8656431725 0.8505691785 -1.8120174836
O -5.8503929984 0.1655216291 -2.5607152099
C -1.8859305734 -0.1369091091 -0.2162103050
C -2.0760864034 -1.6585995227 -0.3081965625
C -1.2229323370 0.3964474940 -1.4847559029
C 0.2246455309 -0.1106594799 -1.5927681708
C 1.0685491704 0.2128213616 -0.3482887321
C 0.3964163738 -0.2858377646 0.9496505777
C 1.2046288964 0.1612465909 2.1647197460
C 2.6519290870 -0.3295996012 2.0701588332
C 3.3031060616 0.0777162533 0.7850948042
C 4.5182118601 0.6731191500 0.8007705698
C 5.3022779049 0.9409920479 -0.3942831578
O 6.4140988637 1.4751755220 -0.3341090545
C 4.7168464686 0.4618983375 -1.6969339812
C 3.1924016556 0.5185874312 -1.6800377458
C 2.5593238145 -0.2463648265 -0.4991225878
C 2.6701661057 -1.7700972763 -0.7405322019
H -0.9042326405 1.3639191287 0.9568079275
H -1.7911485172 -1.1074594853 2.4967291989
H -1.6544815580 0.5500160465 3.0830432967
H -3.8136456907 1.0754155876 2.2207581276
H -4.0041609751 -0.6398747843 1.8617960700
H -2.5138576608 2.3534760381 0.4811463993
H -3.9906214307 1.0819072796 -2.4360255707
H -5.2491021037 1.8128793775 -1.4409474970
H -6.0519944076 -0.6399653802 -2.0532609877
H -2.6359874549 -2.0603968742 0.5387990986
H -2.6201928408 -1.9184724249 -1.2214546064
H -1.1129530116 -2.1703443602 -0.3430533454
H -1.7793191944 0.0877677848 -2.3785663710
H -1.2201476958 1.4921691983 -1.4603834476
H 0.6790735552 0.3426738515 -2.4786585349
H 0.2194833226 -1.1922015470 -1.7646965417
H 1.1071242441 1.3118004561 -0.2579241972
H 0.3550996445 -1.3837368159 0.9509366732
H 0.7535771168 -0.2190696326 3.0875202872
H 1.1917109319 1.2589295775 2.2238106237
H 2.6477748416 -1.4287823365 2.1169154124
H 3.2460116043 0.0238057112 2.9181979459
H 4.9954087757 0.9078643368 1.7504025195
H 5.0665195969 -0.5704712160 -1.8416463895
H 5.1322174443 1.0553112573 -2.5168165645
H 2.8068761044 0.1239704871 -2.6241348432
H 2.8835923650 1.5705857647 -1.6174157194
H 3.7177633150 -2.0850787076 -0.7266027628
H 2.2520456389 -2.0293434963 -1.7166771893
H 2.1396746476 -2.3434154348 0.0235270958
