39
CONF288
C -2.4923084731 -1.6324249398 -3.5401694441
C -1.8620995417 -0.3891195848 -2.9174452588
C -1.2908408859 -0.6999586562 -1.5348907631
N -0.6381458401 0.4779767746 -0.9315576919
C 0.6823932524 0.8402715551 -1.4724865379
C 1.7469643703 0.8953129175 -0.4005805121
O 1.8536194638 -0.4373797106 0.1759947120
C 2.7125764349 -0.5112109044 1.2254355341
C 4.0428894344 -0.9108118978 1.0458488088
C 4.9271260185 -1.0448058909 2.1085912125
C 4.4596606952 -0.7608136151 3.3848380660
C 3.1515132496 -0.3610161037 3.6240935157
C 2.2968844782 -0.2422756499 2.5357538694
Cl 0.6409810206 0.2419228351 2.8086455593
Cl 5.5574614386 -0.9178198965 4.7416968711
Cl 4.5995245530 -1.2619898438 -0.5709795711
C -1.2779108509 1.4388450095 -0.2327625882
O -0.8758392252 2.5865710794 -0.0804394405
N -2.5102643193 1.0415944422 0.4031435097
C -3.6388900297 1.8406829066 0.4661852077
C -4.5021026399 1.1900448204 1.3016008251
N -3.9269671586 0.0262896532 1.7833997790
C -2.7367783234 -0.0347094121 1.2294288491
H -2.9080668994 -1.4066245979 -4.5260210002
H -1.7506332541 -2.4293195855 -3.6606517823
H -3.3024635239 -2.0170317102 -2.9112347948
H -2.6107672338 0.4067157295 -2.8151628861
H -1.0680309832 -0.0029101074 -3.5674324461
H -2.0865516984 -1.0630814539 -0.8846363729
H -0.5372698630 -1.4923961810 -1.5946862260
H 0.6423040622 1.8148101405 -1.9714903279
H 0.9532727431 0.0859487383 -2.2148518570
H 1.4917665757 1.6122208109 0.3862023744
H 2.7069940676 1.1747163841 -0.8514256925
H 5.9497620705 -1.3590381411 1.9409935850
H 2.8021689888 -0.1498860778 4.6270837804
H -3.7096880103 2.7618394216 -0.0909375780
H -5.5025743856 1.4880045812 1.5825148131
H -1.9896697781 -0.7991434320 1.3983918992
