50
CONF5
C 4.2367066328 0.4587583230 -0.0606898292
Si 2.4545676528 0.6620670719 -0.5685322151
O 1.7228586751 1.5777413081 0.5883739302
Si 0.2620179471 2.3106564510 0.8090376150
O -0.7156591672 1.9486068824 -0.4643415882
Si -1.9618434877 1.0420731855 -1.0321270127
O -2.3955079172 -0.0947341326 0.0771376327
Si -1.9541746964 -1.5927577162 0.5924158803
O -0.3386038271 -1.6056335586 0.8921423199
Si 1.1862055270 -1.9680361428 0.3991025407
O 1.7173459001 -0.8138255873 -0.6483304767
C 1.2073812509 -3.5911418777 -0.5170847834
C 2.2447472714 -1.9946933917 1.9339671605
C -2.8352729604 -1.9103898228 2.1992712499
C -2.3812373091 -2.8580935911 -0.7138096768
C -1.4027635457 0.2251418407 -2.6142813287
C -3.4338374142 2.1526529721 -1.2853373165
C -0.4603091612 1.6990341827 2.4135370506
C 0.5276647922 4.1539452006 0.8021451039
C 2.2935640192 1.4601936034 -2.2439498154
H 4.7632003836 -0.2293081625 -0.7302518967
H 4.3149215241 0.0695386124 0.9591632384
H 4.7567247562 1.4221255142 -0.0891636055
H 0.7827618270 -4.3991202471 0.0876207489
H 2.2339785911 -3.8685598838 -0.7788548282
H 0.6348401908 -3.5264957096 -1.4479319908
H 3.2885940214 -2.2301440523 1.7028457805
H 2.2153795024 -1.0184000376 2.4309236942
H 1.8779311294 -2.7416714747 2.6456995017
H -2.5803074055 -2.8962177131 2.6014601181
H -2.5526417057 -1.1586097994 2.9434983434
H -3.9213646829 -1.8645700586 2.0704674719
H -1.8512665039 -2.6572867008 -1.6504015776
H -3.4553016423 -2.8429542165 -0.9280109692
H -2.1170784421 -3.8698879857 -0.3883358037
H -0.5147851471 -0.3939396120 -2.4417281519
H -2.1913209710 -0.4079753299 -3.0346959913
H -1.1413524787 0.9762335087 -3.3676328880
H -3.1974120978 2.9733520882 -1.9701273886
H -4.2830419478 1.5979556242 -1.6975003541
H -3.7499754097 2.5890113807 -0.3318252783
H -0.4981739463 0.6053622925 2.4229146823
H 0.1555203867 2.0244262950 3.2590013379
H -1.4761186543 2.0785986922 2.5662252814
H 0.9269291794 4.4766487097 -0.1653610097
H 1.2394000845 4.4540854016 1.5778820323
H -0.4108421135 4.6911686384 0.9741762169
H 1.2414269379 1.6396186582 -2.4839240306
H 2.8162414072 2.4222764911 -2.2685115042
H 2.7192830445 0.8231740773 -3.0262676203
