27
CONF579
C 2.9810678412 -1.1972866627 -0.9549416604
C 4.1225603714 -1.1675014222 0.0695980959
C 4.5765084434 0.2307215761 0.4487334177
O 4.8732859891 0.9441952508 -0.7599890686
C 1.7583962490 -0.3204524292 -0.6518338025
C 0.9397771667 -0.7792384288 0.5302213221
C -0.3253258413 0.0803579384 0.8526649759
C -1.3337768588 0.2787731868 -0.3216997351
C -2.7521348207 0.7698550046 0.1117461368
F -2.6560434957 1.8368791415 0.9166639199
F -3.4225758818 -0.1988552661 0.7432192655
F -3.4418890022 1.1182274908 -0.9852102389
F -1.4986016624 -0.8857678876 -0.9931734584
F -0.8286951450 1.2024363603 -1.1776280236
F 0.0949023458 1.3105602051 1.2476963446
F -0.9848253981 -0.4992351713 1.8862608709
F 1.6771728287 -0.7446130195 1.6901178900
F 0.5291092638 -2.0735915772 0.3712736296
H 3.3725761529 -0.8516472304 -1.9159476024
H 2.6544944310 -2.2323216558 -1.1008741546
H 3.8415047393 -1.6944693917 0.9868519863
H 4.9730203359 -1.7080455225 -0.3623289719
H 5.4665180542 0.1630250488 1.0919618065
H 3.7906367040 0.7477913121 1.0207369474
H 1.0985883135 -0.3302363641 -1.5247538546
H 2.0515124027 0.7212074501 -0.4860854874
H 5.1945740390 1.8197201207 -0.5222387266
