56
CONF9
C -2.9960998251 4.3536371178 0.3848629786
C -3.4605233497 2.9032359310 0.2517215798
C -4.9044631575 2.7504623651 0.7351895031
C -2.5281761931 1.9784134596 1.0633890767
C -1.0707381033 1.9581440918 0.6292708491
C -0.6899273561 2.0163054533 -0.7111371335
C 0.6450217760 1.9159674853 -1.0947255699
C 1.6138503338 1.7400293310 -0.1109110250
C 1.2618099926 1.6880733274 1.2334340487
C -0.0739597912 1.7960105817 1.5948466552
O 2.9822278384 1.5975882843 -0.3449146255
C 3.5034150114 1.6546738697 -1.6021752773
F 3.2543772365 2.8686320747 -2.1980278737
F 2.9555361564 0.7105952839 -2.4340868359
C -2.9969976956 0.5363540439 1.0679675774
O -3.1944291520 -0.1443325025 2.0473954260
O -3.1229399963 0.0604209121 -0.2032579904
C -3.3383817360 -1.3695322236 -0.2938976656
C -3.7838787713 -1.6071093465 -1.6668416956
N -4.1235576254 -1.8372418396 -2.7460929041
C -2.0700343869 -2.1423540475 0.0097088318
C -0.8564625263 -1.6914963759 -0.5075115641
C 0.3041127594 -2.3917289127 -0.2071080442
C 0.2693540005 -3.5426940077 0.5793597143
C -0.9499222175 -3.9792473486 1.0833986219
C -2.1238300518 -3.2807822609 0.8080717949
O 1.4742389377 -1.9466964803 -0.7906606218
C 2.6134205993 -1.8225873143 -0.0130098336
C 2.5630378392 -1.5141022038 1.3438728693
C 3.7558296817 -1.3193319796 2.0351772538
C 4.9820982838 -1.4256121394 1.3828632260
C 5.0123608784 -1.7349521211 0.0237714996
C 3.8299103379 -1.9393987799 -0.6796169473
H -1.9701336972 4.4859323948 0.0290350183
H -3.6472597984 5.0141003033 -0.1957647559
H -3.0376556792 4.6709693811 1.4334381003
H -3.4183031916 2.6091536174 -0.8033303533
H -5.2761790971 1.7293389800 0.5963928700
H -5.5642135228 3.4234905929 0.1795853174
H -4.9822885425 3.0008763500 1.7997317335
H -2.5687653319 2.2904594595 2.1127862517
H -1.4373260899 2.1352413779 -1.4881993106
H 0.9002482037 1.9671521983 -2.1444533753
H 2.0363369120 1.5559362937 1.9807388384
H -0.3456570641 1.7476335658 2.6455185963
H 4.5822216487 1.4970594184 -1.5358392123
H -4.1395157250 -1.6731643313 0.3899565854
H -0.7988245989 -0.7992779545 -1.1224345126
H 1.1858705883 -4.0823704278 0.7927736399
H -0.9850367757 -4.8714491446 1.6998802415
H -3.0715066087 -3.6157124899 1.2173434153
H 1.6088526500 -1.4107973178 1.8484062051
H 3.7203136338 -1.0718053763 3.0916844921
H 5.9065400514 -1.2693357696 1.9287512068
H 5.9620330963 -1.8229016668 -0.4948158698
H 3.8356485552 -2.1758633470 -1.7383034243
