29
CONF165
C -2.9039320716 0.8327724780 -0.5508359956
N -2.1763101257 -0.3826166885 -0.1629292739
C -2.5914816685 -1.6705598543 -0.7529636057
C -1.6484120363 -2.1757503151 -1.8381474078
O -1.4579024177 -1.2157258536 -2.8743171706
S -1.0682233913 -0.3354268410 1.0540181178
O -1.3694357821 0.7641546575 1.9689955181
O -0.7974480348 -1.7067827829 1.4783207342
C 0.5176364370 0.2541729192 0.1438735480
C 1.6334844030 0.7481483105 1.1124940974
C 3.0500309469 0.8164306235 0.4484323535
C 4.0923309719 1.6699153579 1.2408663050
F 4.1214902147 1.2933326053 2.5262323922
F 5.3052036136 1.4755837640 0.7039859043
F 3.8002640326 2.9726856471 1.1703185851
F 2.9336782793 1.3589465397 -0.7886796207
F 3.5437580257 -0.4346375809 0.3368888819
F 1.6957553599 -0.0997182527 2.1624056106
F 1.3028771034 1.9816717415 1.5526853059
F 0.1596208344 1.2590263691 -0.6901926071
F 0.9805556130 -0.7730448550 -0.6067563183
H -2.8306171866 0.9714499736 -1.6336672760
H -3.9585332743 0.7472806808 -0.2629082370
H -2.4796355732 1.7003396318 -0.0449436432
H -3.5804550697 -1.4848579916 -1.1850661519
H -2.6980465941 -2.4281209198 0.0307526159
H -0.6933277847 -2.4853519766 -1.3951446132
H -2.1011383076 -3.0591100652 -2.3029381306
H -0.7817874168 -0.5942073221 -2.5824801100
