45
CONF14
C 4.5321580715 2.9157283804 1.1725137525
C 3.5837341459 2.9275065563 -0.0246481328
C 2.7570326271 1.6466120641 -0.1349050104
C 1.7810504003 1.6713821169 -1.3105985530
C 1.0058598949 0.3672223835 -1.5120999663
C 0.1142511554 -0.0495225336 -0.3268064931
C -0.6172298930 -1.3656920060 -0.6470096012
C -1.4316259582 -1.9141829820 0.5244134246
C -2.2212671122 -3.1828523562 0.1894652160
C -1.3558663375 -4.3987394945 -0.1463114921
C -2.1903951724 -5.6572520158 -0.3796647465
C -0.8496465755 1.0516533319 0.0594465958
C -1.8018297233 1.5260468755 -0.8508596765
C -2.6875736796 2.5396527747 -0.4972741624
C -2.6388192394 3.1025006677 0.7778624802
C -1.6979319724 2.6393459403 1.6936026344
C -0.8137149856 1.6230188846 1.3338756115
H 5.2358412547 2.0783045494 1.1054376939
H 3.9747631714 2.8073112576 2.1097360384
H 5.1153596245 3.8401995383 1.2333868896
H 2.9036997995 3.7867343329 0.0516873021
H 4.1569213897 3.0685480352 -0.9506801856
H 3.4317186453 0.7840360017 -0.2369987432
H 2.2076596017 1.4997200033 0.8043318929
H 1.0730174726 2.5003346834 -1.1732195921
H 2.3389570987 1.8917536784 -2.2305843432
H 1.7136933889 -0.4494874795 -1.7090896503
H 0.3769122014 0.4560013851 -2.4079676113
H 0.7591606454 -0.2377916962 0.5417020954
H -1.2783397832 -1.2128569419 -1.5119985170
H 0.1355030711 -2.1007046791 -0.9574135359
H -0.7585744732 -2.1135196536 1.3707605573
H -2.1316879731 -1.1395007571 0.8625621236
H -2.8956874827 -2.9756451661 -0.6539027099
H -2.8645039976 -3.4378842149 1.0426505768
H -0.6467333229 -4.5714914178 0.6748362660
H -0.7523882263 -4.1948699094 -1.0390250639
H -2.7805136479 -5.9054494217 0.5097284058
H -1.5594701049 -6.5198863349 -0.6166754479
H -2.8883371055 -5.5128024462 -1.2121128495
H -1.8519246475 1.0990686966 -1.8488513412
H -3.4185108208 2.8928315558 -1.2188665332
H -3.3292538541 3.8936704673 1.0536480295
H -1.6514546793 3.0677542889 2.6906208139
H -0.0840118972 1.2631941520 2.0551703511
