49
CONF78
C -5.2870225176 0.4215498915 0.2058900438
C -3.9110777232 1.0010732833 0.4502817207
C -2.8011784991 0.7800294751 -0.5354566373
C -2.8263970433 -0.0303217985 0.7569663256
C -1.7137568421 0.1907139708 1.6931464825
O -1.0556897636 1.1993113995 1.8250024864
O -1.4709435261 -0.9571890538 2.4002325959
C -0.2187108263 -0.9562151404 3.1434832171
C -0.3880608972 -1.9459855952 4.2044032263
N -0.4899545624 -2.7275157278 5.0479477872
C 0.9229854521 -1.3001114238 2.2125615331
C 1.8476933742 -0.3160213683 1.8774711617
C 2.8317760817 -0.6051447849 0.9371147327
C 2.9079762684 -1.8600584745 0.3382756669
C 1.9769975537 -2.8344564892 0.6862538196
C 0.9818593309 -2.5630242640 1.6203415564
O 3.7574686650 0.3840237888 0.6761861431
C 4.1213596232 0.6192922388 -0.6422187027
C 3.1925447220 0.5666805426 -1.6790181161
C 3.6061509821 0.8807760154 -2.9701457474
C 4.9263075187 1.2506402447 -3.2221416018
C 5.8380836244 1.3076680665 -2.1699349507
C 5.4419887963 0.9888249602 -0.8737336449
C -2.9601270024 0.0600728156 -1.8361992769
C -1.6361099834 -0.3023266718 -2.5266916815
Br -1.9610444608 -1.3524288210 -4.1589417385
Br -0.5779181058 -1.4316543586 -1.2869363115
Br -0.5563673294 1.2787746151 -2.9748326595
Br -4.0655257033 1.1950089376 -3.0618704775
C -3.9281346358 2.3254290665 1.1780102106
H -5.8913121754 1.1243842602 -0.3754966241
H -5.7854069704 0.2559680093 1.1664343864
H -5.2569374403 -0.5319340864 -0.3270302910
H -2.0534416882 1.5688642970 -0.5450724221
H -3.1470376225 -1.0632765096 0.6759098956
H -0.0616030618 0.0250596303 3.6046648955
H 1.8005095576 0.6735763368 2.3187156285
H 3.6843491160 -2.0692266105 -0.3899266666
H 2.0346068955 -3.8161692083 0.2275003353
H 0.2545114344 -3.3252383201 1.8826772600
H 2.1630714936 0.2884421437 -1.4792676294
H 2.8849461832 0.8429403895 -3.7808927735
H 5.2409724383 1.4954994874 -4.2311288683
H 6.8679396517 1.5959924322 -2.3558735365
H 6.1401862834 1.0249607701 -0.0440777949
H -3.5375468321 -0.8611756336 -1.7383269252
H -4.4190030856 2.2136047156 2.1505557899
H -2.9237266952 2.7201076934 1.3362393497
H -4.5002509423 3.0498665784 0.5889492137
