55
CONF5
C -2.9100909161 0.9244385550 -2.0972761451
C -2.5640329894 0.6560547884 -0.6073895264
C -3.2699510832 1.7953062252 0.1696438025
C -3.6663083530 1.4806180935 1.6091961252
C -4.4343758813 0.1927900958 1.7056401036
O -5.3006056866 0.0031639417 2.5640946880
C -4.0319142245 -0.8604030278 0.7843913708
C -3.1394038658 -0.6884176117 -0.2158352607
C -2.6173071516 -1.8674558000 -0.9715005686
C -1.0983664621 -1.9315287438 -0.7542605303
C -0.4164668877 -0.6357604393 -1.2116926433
C -0.9856973690 0.6263405064 -0.4956416750
C -0.3729827492 0.7686887641 0.9098615787
C 1.1613111672 0.7356804372 0.8610836546
C 1.7675218847 -0.5186705864 0.2287433176
C 1.1164747881 -0.7339628216 -1.1585653687
C 1.8166420014 0.2799670932 -2.0939269185
C 3.1820198704 0.6063225072 -1.4472922610
C 3.2588281744 -0.3007953126 -0.2047971815
C 4.1599582165 0.2289391190 0.8741782919
O 4.1244675082 1.3822201329 1.2828456587
C 5.1728829497 -0.7267272035 1.4583175386
O 5.9195539548 -0.1447325598 2.5037159183
C 1.6673453190 -1.7085283691 1.1849004145
O -0.7337345911 2.0043171279 1.5533804587
H -2.3861302141 0.2719680218 -2.7956068834
H -2.6450363050 1.9604372047 -2.3346257301
H -3.9856581314 0.8016251111 -2.2586506273
H -4.1964805226 2.0184251321 -0.3755920645
H -2.6572754448 2.6994771318 0.1310195263
H -2.7775195061 1.3668237193 2.2399599590
H -4.2649571290 2.2896597266 2.0391961725
H -4.4492702742 -1.8477617505 0.9734177746
H -3.0973600863 -2.7866960366 -0.6238446235
H -2.8244145387 -1.7652299480 -2.0440064528
H -0.6816876237 -2.7750256668 -1.3166660527
H -0.9133870662 -2.1311123900 0.3051710062
H -0.6554290587 -0.5343208653 -2.2780846657
H -0.6437609921 1.5115678175 -1.0545433038
H -0.7602239083 -0.0138523917 1.5747992945
H 1.4775385609 1.6245594274 0.2984474834
H 1.5313744005 0.8659750298 1.8837226530
H 1.3890469259 -1.7453131309 -1.4910163384
H 1.2161390303 1.1888407882 -2.1990713197
H 1.9276840968 -0.1438929852 -3.0959136665
H 4.0244123831 0.4159929013 -2.1176080083
H 3.2363771073 1.6551673523 -1.1433434339
H 3.6316257084 -1.2915127400 -0.4985823658
H 5.8272344397 -1.0456312166 0.6280988136
H 4.6492345072 -1.6309807578 1.8056997789
H 5.6286931237 0.7834256944 2.5408644969
H 0.6501408262 -1.8574221879 1.5512553508
H 2.2970661706 -1.5413483609 2.0657917029
H 1.9955901138 -2.6332631544 0.6978283878
H -0.3493351323 2.7215538239 1.0313631865
