42
CONF22
C 1.1735683497 -3.7795231968 0.4826176212
C 0.1027679734 -2.8265832939 -0.0409150967
C 0.6945605705 -1.6068868640 -0.7423173710
C -0.4288998716 -0.7893006822 -1.3881421469
O -0.8643295468 -1.1180126573 -2.4937359609
N -0.9028898351 0.2315003191 -0.6488289144
C -2.0373342608 1.0522807394 -1.0508083720
C -3.3041215942 0.7120212739 -0.2964413368
C -3.6898254928 -0.6189331640 -0.1138724166
C -4.8724186018 -0.9258017570 0.5522206398
C -5.6859656373 0.0951146038 1.0430051260
C -5.3072861743 1.4231630345 0.8651561791
C -4.1206187545 1.7286322788 0.2006567193
O 1.4239628825 -0.8663020143 0.2512965762
C 2.2930111394 0.1020421750 -0.1707133453
C 3.0298572088 0.7175457071 0.8434022639
C 3.9373204179 1.7217793436 0.5329329132
C 4.0967783929 2.0987543648 -0.7995607481
C 3.3765748143 1.4997253358 -1.8113689260
C 2.4639056630 0.4935669529 -1.5001844609
F 4.9776431070 3.0790145671 -1.1065752312
C 4.7401931106 2.4000813088 1.6029457873
F 4.4718276217 1.9084428302 2.8313328964
F 4.4956147895 3.7348298819 1.6485542472
F 6.0749764345 2.2568019986 1.4026075796
H 1.8093096842 -3.2899217188 1.2250798714
H 0.7097488754 -4.6506482448 0.9536448169
H 1.8107866577 -4.1332366213 -0.3346743563
H -0.5430862657 -2.4785375347 0.7746376003
H -0.5388621659 -3.3354071970 -0.7683350903
H 1.3725580789 -1.9320863013 -1.5418518791
H -0.5088612401 0.3767532381 0.2705054828
H -1.7875684544 2.1077704672 -0.9014647535
H -2.1845932890 0.8899430074 -2.1239023321
H -3.0605274524 -1.4190284344 -0.4938154938
H -5.1614928205 -1.9636671473 0.6871603038
H -6.6074805052 -0.1447979691 1.5641548570
H -5.9314768522 2.2239135454 1.2499450332
H -3.8245574772 2.7661608312 0.0696059719
H 2.8843551616 0.4007885365 1.8692460849
H 3.5225228265 1.8197049584 -2.8370798133
H 1.9003523359 0.0383428901 -2.3054282347
