55
CONF118
C 5.4330094154 -3.4621451926 -2.9715492201
O 4.0663924178 -3.5377953745 -2.5408134547
C 3.5918487577 -2.5204275583 -1.7711903829
C 4.3442462215 -1.4146770311 -1.3684443030
C 3.7462218342 -0.4370431986 -0.5757435535
C 2.4129021771 -0.5296186827 -0.1783062323
C 1.6770980218 -1.6511068782 -0.5837629461
C 2.2542238159 -2.6335450339 -1.3702020440
C 1.8209282447 0.5819683469 0.6473590859
S 0.9810751552 -0.1652381236 2.1334988861
C -0.1319265925 1.1310507112 2.6446315801
C 0.0467723796 1.7250396505 3.8972997178
C -0.8573643666 2.6696236843 4.3683308301
C -1.9353739769 3.0521628821 3.5732204189
C -2.1135913026 2.4833076423 2.3185419190
C -1.2274996391 1.5117720867 1.8470205657
N -1.4668121724 0.9213630412 0.5746234109
C -2.7603970939 0.2537078507 0.3486498433
C -2.6706358481 -1.2169131839 0.8043299216
N -3.8884999772 -2.0088666495 0.6587555578
C -4.2978535404 -2.1763593125 -0.7356765220
C -4.9942757407 -1.5193769894 1.4816224510
C -0.5157844181 0.8284040504 -0.3991306328
O -0.7172428304 0.2732400847 -1.4773967766
C 0.8266309348 1.4989188847 -0.0893563218
O 1.4762190387 1.8793878852 -1.3133961640
C 0.8615393736 2.8639918073 -2.0178398064
C 1.5729254590 3.1309890987 -3.3056091766
O -0.1466754408 3.4176319178 -1.6317269963
H 5.6015477928 -2.5701510338 -3.5857744085
H 5.6033861449 -4.3575005397 -3.5696024288
H 6.1151344017 -3.4562573644 -2.1135655548
H 5.3825442643 -1.3036216340 -1.6553871852
H 4.3369873626 0.4207202374 -0.2662429561
H 0.6419969270 -1.7610767917 -0.2791206807
H 1.6831151893 -3.5020560859 -1.6825130623
H 2.6334617488 1.2224114506 1.0044194650
H 0.8988725273 1.4323514534 4.5016207696
H -0.7117127508 3.1149234599 5.3469151857
H -2.6335610985 3.8055311995 3.9227996231
H -2.9408736727 2.7981693726 1.6908022150
H -3.0001468059 0.3292521971 -0.7136337480
H -3.5214678920 0.7889928019 0.9190140598
H -1.8702697672 -1.7039696351 0.2330794722
H -2.3737696636 -1.2288528208 1.8618999633
H -5.1000319540 -2.9206902899 -0.7902574809
H -3.4508046651 -2.5394362437 -1.3277595901
H -4.6734895552 -1.2473635669 -1.2016182891
H -5.8054586992 -2.2558624505 1.4722581469
H -4.6570581845 -1.3922914402 2.5160251731
H -5.4146219968 -0.5582616918 1.1333708041
H 0.6602434761 2.3974939195 0.5118961494
H 1.2540189000 2.3759260967 -4.0330327890
H 1.2996314479 4.1176099742 -3.6787262497
H 2.6542244161 3.0445642960 -3.1846066609
