27
CONF50
C -3.3007252648 0.1268697993 -1.1345096592
C -4.8016007851 0.3582242470 -0.9181668844
O -5.4689188097 0.5100167813 -2.1714595919
C -2.5514122240 0.0332448235 0.1713565967
C -1.0333386390 -0.2807096782 -0.0127082477
C -0.1468940627 -0.1150672007 1.2622803160
C 1.2884262129 -0.7681775409 1.2271399102
C 2.2331588297 -0.3547664860 0.0552424197
C 3.7354401459 -0.7392620931 0.2720021343
F 3.8494688513 -2.0281394561 0.6178634807
F 4.2925867896 0.0211913916 1.2200593102
F 4.3941910904 -0.5393879409 -0.8779042407
F 2.1830646020 0.9848710060 -0.1215693369
F 1.8154094895 -0.9687816253 -1.0746488481
F 1.8825814743 -0.4073254165 2.3934596119
F 1.1500438752 -2.1113626823 1.2166797605
F 0.0035964029 1.2017351943 1.5262577760
F -0.7749964104 -0.6960874814 2.3142753084
F -0.9254379842 -1.5575356369 -0.4611995134
F -0.5345031054 0.5535876629 -0.9627086953
F -3.0805742568 -0.9528666123 0.9637402122
F -2.6498804004 1.2061350651 0.8789086418
H -3.1401994486 -0.8043421571 -1.6891096940
H -2.8821609287 0.9519157868 -1.7171707863
H -5.2374408575 -0.4645740943 -0.3385295493
H -4.9640379000 1.2908355997 -0.3712293764
H -5.4675828766 -0.3483359474 -2.6140086810
