21
CONF3
C -1.4144639380 -0.4094492249 1.0357249471
C -2.9323429344 -0.2686240062 0.8594470843
O -3.4962718321 -1.2441759996 -0.0115019176
C -0.6338727289 0.1928193375 -0.1086010449
C 0.8973000890 -0.0836484122 -0.0265240734
C 1.7884771335 0.7566774788 -0.9982425584
C 3.2293425565 0.1862776568 -1.2053087093
F 3.9660651973 1.0981946661 -1.8562032761
F 3.8075658438 -0.0710571936 -0.0231983913
F 3.2030309980 -0.9354189776 -1.9337543998
F 1.2055436300 0.8290340153 -2.2170172815
F 1.9158877119 2.0067024465 -0.4984027979
F 1.3106322555 0.1783935746 1.2406839828
F 1.0998400909 -1.4040539039 -0.2743308092
F -0.8067913128 1.5526711945 -0.1482319567
F -1.0768454544 -0.2955498923 -1.3143978491
H -1.1531126844 -1.4681890419 1.1312468781
H -1.1003306936 0.1035693619 1.9497791241
H -3.3977360367 -0.4358258678 1.8345069662
H -3.1864947729 0.7518852274 0.5401682378
H -3.2254229329 -1.0402322331 -0.9136523545
