35
CONF1
C 4.9845776962 -1.9843634244 0.7838095854
O 4.3726593342 -1.1956925748 -0.2331037923
C 3.1197499539 -0.7183722172 0.0076206462
C 2.3968231242 -0.9425417262 1.1825840598
C 1.1223252941 -0.4020093932 1.3152811863
C 0.5471796628 0.3684361457 0.3049362456
C 1.2819452866 0.5777099058 -0.8655831253
C 2.5527950051 0.0439670293 -1.0165624821
C -0.8685722565 0.9091012857 0.5006208351
C -1.1631375056 2.0635824902 -0.4556729392
C -1.7956149962 1.8877984576 -1.8102386592
C -2.5655512583 2.5377329942 -0.6936179696
C -1.8830570905 -0.2136729698 0.3670955011
C -3.0207763543 -0.2871989715 1.1699509731
N -3.9298973998 -1.2599140416 1.0416592182
C -3.6910421511 -2.1639155849 0.0901788453
N -2.6384201333 -2.2058155573 -0.7313920744
C -1.7410773970 -1.2296403465 -0.5764486609
O -1.0159720848 1.3901204765 1.8541557146
H 4.4041471755 -2.8936411481 0.9865641829
H 5.9658823117 -2.2600474790 0.3959037707
H 5.1072093769 -1.4118302719 1.7122997190
H 2.8078562588 -1.5331135641 1.9919667701
H 0.5603664060 -0.5790820151 2.2267242713
H 0.8550993137 1.1592539564 -1.6756120337
H 3.1254692409 0.2060194732 -1.9233241611
H -0.4035744850 2.8419709720 -0.3933541812
H -1.4325898132 2.5112742109 -2.6206748243
H -2.0983497867 0.8887739206 -2.1063162516
H -3.3733488850 1.9669444873 -0.2475220431
H -2.7360682378 3.6075245962 -0.7383883271
H -3.1949524665 0.4542185626 1.9450127454
H -4.4306516810 -2.9556795217 -0.0266635576
H -0.8647224164 -1.2616551838 -1.2231923945
H -0.3567081311 2.0837569262 1.9773974095
