45
CONF354
C 6.0514847400 0.0243508269 4.2063751566
C 5.3322938342 0.6150666641 2.9957706486
C 4.5256321798 -0.4270036507 2.2218730023
C 3.7968496569 0.1509047233 1.0105126348
C 2.9924863261 -0.8915801470 0.2370140193
C 2.2682574243 -0.3086384883 -0.9772577615
C 1.3094597257 -1.2908752307 -1.6557400553
C 0.0011952438 -1.5300754698 -0.8771591728
C -0.8812588734 -0.3094140719 -0.7679604377
C -0.8912733165 0.4437570474 0.4084029133
N -1.7195106407 1.5204033416 0.4335305345
C -2.5279465686 1.8807615824 -0.6439136900
N -3.2297671358 2.9661014703 -0.2917088470
C -2.8154888254 3.2017245117 0.9692264858
N -1.9002130261 2.3686094424 1.4795414783
N -2.5227452549 1.1869536446 -1.7779554129
C -1.7170932568 0.1248501308 -1.8325499399
C -1.7511158544 -0.5883524877 -3.1634294825
C -1.2160834158 0.3058250102 -4.2896943232
N -0.1385409776 0.2530650415 1.5224555489
H 6.7492106462 -0.7633418122 3.9021524921
H 5.3373979276 -0.4190565922 4.9087957875
H 6.6218982351 0.7861795812 4.7460794971
H 6.0638063559 1.0780674687 2.3207499865
H 4.6624861440 1.4219960173 3.3208607279
H 3.7949996269 -0.8937715940 2.8984351099
H 5.1958674116 -1.2344477116 1.8945493836
H 4.5252373915 0.6199301765 0.3346613704
H 3.1209932807 0.9535634144 1.3374965233
H 2.2753998593 -1.3657667274 0.9227211623
H 3.6578391681 -1.7010407392 -0.0942625635
H 3.0201244478 0.0207167290 -1.7049128636
H 1.7164488845 0.5940478817 -0.6824656998
H 1.0530393829 -0.9177765786 -2.6535121557
H 1.8149313363 -2.2548572105 -1.8023406693
H -0.5602065786 -2.3362532066 -1.3596534816
H 0.2358994961 -1.9224017695 0.1195398072
H -3.1920184426 4.0246323018 1.5646153919
H -2.7972734850 -0.8373487738 -3.3749043237
H -0.1719882060 0.5827652701 -4.1106918268
H -0.4142640290 0.7728732794 2.3426890422
H 0.3150299033 -0.6322863650 1.6566819254
H -1.2729505280 -0.2124757501 -5.2513441906
H -1.1924579931 -1.5257220420 -3.1342073639
H -1.8042477306 1.2241544210 -4.3488608500
