50
CONF9
C 7.1433663696 0.5786441811 -1.3962922283
C 6.2215004764 1.5882684778 -0.7543137473
O 5.0838439056 0.8495505859 -0.2299043831
C 4.1438393766 1.5961171312 0.4016611146
O 4.2175166899 2.8168960867 0.5078488239
N 3.1463310107 0.8283727912 0.9297916290
C 1.9270639438 1.4979381580 1.3844307704
C 0.8503009534 1.4553844722 0.2817801037
C 0.6127313609 0.0309268954 -0.1392442122
C -0.5961539461 -0.5631979609 -0.0878647825
C -1.8238111888 0.1584157686 0.3385726951
C -2.8009353154 0.4468109477 -0.6264062764
C -2.5548509450 0.0143852676 -2.0423150033
C -2.6913269827 -1.5035990926 -2.2055462765
C -1.7900027120 -2.4041970241 -1.3835998983
C -0.8218814711 -1.9936457224 -0.4449624517
N -0.0707168680 -2.8795399437 0.2437959291
C -0.2280288203 -4.1848688826 0.0172348301
C -1.1476939850 -4.6878431233 -0.8955191140
C -1.9296621451 -3.7798933925 -1.5908906251
C -3.9728925414 1.1019889633 -0.2496651616
C -4.1537748984 1.4578720271 1.0813080361
C -3.2028137130 1.1806336899 2.0538682332
C -2.0369258555 0.5239004503 1.6685034540
Cl -5.6389074578 2.2903444609 1.5471503381
C 1.8787976239 -0.6440738832 -0.5892849990
C 2.9287114296 -0.5675775841 0.5358963293
H 8.0132273569 1.0980266649 -1.8087014744
H 6.6388749416 0.0505944401 -2.2105747874
H 7.4939077054 -0.1532833144 -0.6631034534
H 5.8600451853 2.3261603864 -1.4774926439
H 6.7090203574 2.1177267112 0.0704005024
H 1.5622015640 0.9727304182 2.2756169413
H 2.1651892971 2.5267792845 1.6559318506
H -0.0609203290 1.9376242396 0.6416875881
H 1.2251853756 2.0301686417 -0.5769902682
H -1.5508988708 0.3295445501 -2.3505082023
H -3.2727544158 0.4951867609 -2.7130041153
H -3.7289970736 -1.7856335644 -1.9819964871
H -2.5351125490 -1.7541564234 -3.2623336562
H 0.4034970292 -4.8561388875 0.5971476907
H -1.2500519162 -5.7566536760 -1.0501579846
H -2.6622749714 -4.1316714131 -2.3132572015
H -4.7305541539 1.3371627805 -0.9901835153
H -3.3644449830 1.4667023625 3.0868680920
H -1.2810971489 0.2947666339 2.4139214715
H 1.7193962285 -1.6851421264 -0.8702701297
H 2.2787839543 -0.1058228961 -1.4604772690
H 2.5589057811 -1.1094106828 1.4150335927
H 3.8701543052 -1.0179447354 0.2248374474
