46
CONF85
C -2.6985897631 4.2737199685 -0.8329950497
C -3.5490453558 3.1228453590 -1.3670714506
C -2.9433463898 1.7591393212 -1.0309486387
C -3.7982504614 0.6293005663 -1.5718887345
O -3.1777643227 -0.6647650979 -1.2835050599
C -3.4069676685 -1.1851929780 -0.0767630613
O -4.1483437457 -0.7185781122 0.7647412885
C -2.6703808613 -2.5072753814 0.1367678683
C -3.5909785417 -3.6640412022 -0.2245292881
O -1.5032165526 -2.6371423970 -0.6795042774
C -0.4583346870 -1.7825125050 -0.4586390563
C 0.6228843290 -1.9241371484 -1.3351795132
C 1.7378144512 -1.1102241381 -1.2026995705
C 1.7598136865 -0.1540389975 -0.1952401274
C 0.6982299350 0.0017356384 0.6786520560
C -0.4220885468 -0.8180492952 0.5516945841
O 2.8607144548 0.7110357880 -0.1025295099
C 3.8714661524 0.3582767191 0.7309141559
C 4.9453536529 1.2562975131 0.8168876296
C 6.0350025845 1.0234631356 1.6200462138
C 6.0661229962 -0.1590275469 2.3788344218
C 5.0054077141 -1.0706971576 2.3080144977
C 3.9163041468 -0.8120001621 1.4892606220
C 7.1795962960 -0.4272653670 3.2171553292
N 8.0878610784 -0.6508177522 3.9023348601
F 4.8932129837 2.3822990557 0.0774706762
H -1.6903534006 4.2440204071 -1.2600752384
H -3.1423351356 5.2427657140 -1.0806635955
H -2.6029539404 4.2138727775 0.2565731795
H -4.5607584066 3.1835281800 -0.9461389663
H -3.6558257172 3.2148205472 -2.4555993573
H -1.9351394751 1.6827498632 -1.4572894068
H -2.8479628786 1.6549356402 0.0567850448
H -4.8056654681 0.6410168972 -1.1470790483
H -3.8588164975 0.6592224604 -2.6620366106
H -2.4004925824 -2.5586657236 1.1991591978
H -3.8600637696 -3.6188765230 -1.2833930636
H -3.0827539786 -4.6095688941 -0.0214058925
H -4.4999849701 -3.6144257613 0.3793630724
H 0.5741412271 -2.6751971100 -2.1164228869
H 2.5839016212 -1.2097962370 -1.8746261020
H 0.7408618092 0.7570495019 1.4565161614
H -1.2440998294 -0.6833172719 1.2443266421
H 6.8438300818 1.7442433019 1.6570619075
H 5.0353916392 -1.9819180071 2.8941348181
H 3.0966023921 -1.5188076843 1.4365519867
