123
CONF26
C -1.4585208883 4.3700664369 1.3967293578
C -0.4003221619 3.2801963201 1.1590445213
C -0.1422991218 2.5726859232 2.4592212405
C 1.0525317480 2.3075325215 3.0332289723
C 2.3347517407 2.5222872846 2.4053003422
C 3.5740867947 2.2274536413 2.8586771121
C 3.9387605723 1.7155675875 4.2174190661
O 4.7931450882 2.3202296750 4.8764238203
N 3.4094140689 0.5539903541 4.7221739793
C 2.3796407773 -0.2405244285 4.1966700114
C 1.3504790360 -0.6417575306 5.0154618328
C 0.1423178284 -1.2886358616 4.4984664588
C -0.0701751943 -1.3445851413 3.1039237958
C -1.3729343462 -1.5717970496 2.6336499002
C -2.4016264963 -1.8970056344 3.5317627902
C -2.2013742153 -2.0436518929 4.8990810114
C -0.9210807473 -1.7126333061 5.3507368717
O -0.6324276280 -1.7907229383 6.6739044342
C -3.2924826066 -2.4604623242 5.8372907370
O -3.6218625878 -2.0120023685 2.9595102147
C -3.5285699321 -1.3605302118 1.6394905904
C -2.0045096952 -1.2648506215 1.3760011445
O -1.5551781907 -0.8647660540 0.3119329681
O -4.2572776313 -2.0659760448 0.6919128717
C -3.6154078876 -3.0865082598 -0.0096061911
C -3.5041712323 -3.0057984903 -1.3312298689
C -3.9432697572 -1.8153503115 -2.1419135104
C -2.8224529822 -1.3192958628 -3.0776788892
C -2.9059354323 0.1781013029 -3.4037760580
C -2.7028503208 1.1181425146 -2.1783937186
C -1.4854143504 2.0289144404 -2.4454316640
C -1.1132394186 3.0094327232 -1.3085707744
C -0.8495794220 2.3087338001 0.0412465763
O 0.1792164365 1.3106349412 -0.1460199182
C 0.0658729268 3.8839923435 -1.7553690417
O -0.3486089321 1.2318344954 -2.8306722172
C -3.9492866811 1.9298762833 -1.8174570161
O -4.1989759142 0.4064542132 -4.0488456446
C -4.2733044504 1.3377578882 -5.0134748396
O -3.3370434111 2.0257755487 -5.3776473200
C -5.6572287911 1.3952974801 -5.5925702901
C -2.7052525042 -2.1594151749 -4.3507924913
O -5.0950925854 -2.1615399344 -2.9320010897
C -6.2866696970 -2.2143590492 -2.1523291883
C -4.1317132708 0.0235627799 1.7603989294
C 1.1047578996 -1.1942513664 2.2695628809
N 1.2880933070 -1.5711121774 1.0450274061
C 2.7089861259 -1.3307705133 0.7818397796
C 2.8898403461 -0.4134170992 -0.4459286567
C 4.3479021139 -0.3321695107 -0.8768391258
N 4.8905972335 -1.6604555334 -1.1809568268
C 4.8198923563 -2.5080265816 0.0148135941
C 3.3803821856 -2.6922768639 0.4727243051
C 6.2802899104 -1.5792113745 -1.6465627304
C 6.4733784113 -0.8676918156 -2.9907475011
C 5.5702118898 -1.4496604112 -4.0774020670
C 7.9470019327 -0.9686269205 -3.3933106465
N 3.3187964548 -0.7394631161 1.9702144053
C 2.3607351815 -0.6828811927 2.8429366000
O 1.4459863342 -0.2739081797 6.3114130282
C 4.7894428765 2.5388602244 2.0272925475
H -1.5711971604 5.0177596512 0.5235087823
H -2.4317388543 3.9162615191 1.6190964678
H -1.1751212919 4.9971052895 2.2470930148
H 0.5253937797 3.7532763510 0.8188061529
H -1.0380208604 2.3025983401 3.0214336080
H 1.0440957486 1.8786770604 4.0318317021
H 2.3043049739 2.9549198296 1.4073904077
H 3.6567655396 0.3899949703 5.6917752755
H -1.4249358419 -1.9534649508 7.2075535424
H -3.5136313587 -1.6733625226 6.5693678588
H -3.0177071922 -3.3693364461 6.3852378604
H -4.2091203901 -2.6653128653 5.2846642517
H -3.2750548930 -3.9257738689 0.5944337383
H -3.0759709227 -3.8547556353 -1.8582393274
H -4.2179086109 -1.0053697113 -1.4530208593
H -1.8894252584 -1.4199421402 -2.5080524344
H -2.1354597631 0.3946871605 -4.1474191444
H -2.4544977953 0.4768892111 -1.3260616160
H -1.7270313212 2.6419058362 -3.3248159972
H -1.9844225573 3.6590918216 -1.1694337071
H -1.7721204564 1.8114810565 0.3734076566
H -0.1572544114 0.4624772241 0.1916747793
H -0.0949799522 4.2347519258 -2.7798367018
H 1.0074639082 3.3272472864 -1.7364874933
H 0.1776439714 4.7641967188 -1.1167015223
H 0.0807214893 0.9956356016 -1.9879514418
H -4.8263179215 1.2857740135 -1.7091110519
H -3.8041607927 2.4544176786 -0.8686883813
H -4.1754807985 2.6806965019 -2.5835402712
H -6.4079913374 1.3718905340 -4.7991805325
H -5.7692926205 2.2927479472 -6.2000682487
H -5.8123994457 0.5120397614 -6.2214552396
H -3.5674992950 -2.0019973954 -5.0032258788
H -1.8004788889 -1.8804611005 -4.9000099058
H -2.6462655044 -3.2273392093 -4.1210576125
H -6.4974194508 -1.2381565269 -1.6900310263
H -7.1010734472 -2.4752222924 -2.8324778268
H -6.2225727953 -2.9740253752 -1.3601755242
H -5.1973380213 -0.0712225038 1.9847648751
H -4.0004845609 0.5450001566 0.8088387617
H -3.6360083311 0.5884246842 2.5541756273
H 2.5085338812 0.5826133253 -0.2088306775
H 2.2850720489 -0.8263841173 -1.2607074186
H 4.9480182128 0.1729678188 -0.0947541656
H 4.3967892858 0.2888179212 -1.7775172500
H 5.4267407445 -2.0893665511 0.8409903442
H 5.2379973245 -3.4912599510 -0.2326372723
H 3.3412576174 -3.3209754766 1.3686187977
H 2.7992660201 -3.1764701316 -0.3184449617
H 6.6480838775 -2.6099549000 -1.7534959412
H 6.9214778892 -1.0862710076 -0.8865343697
H 6.2355411609 0.1976035315 -2.8706488932
H 5.7588684878 -0.9605325590 -5.0390306072
H 4.5122820852 -1.3257675555 -3.8293362941
H 5.7636086752 -2.5228526176 -4.1986110561
H 8.1341403986 -0.4211546656 -4.3224897716
H 8.2298828110 -2.0158672713 -3.5552076574
H 8.6018423386 -0.5565390527 -2.6177853413
H 0.7144846719 -0.6662487357 6.8223292234
H 5.4304024817 1.6540268744 1.9350531238
H 5.3920530859 3.3246429692 2.4949786865
H 4.4972750666 2.8634766401 1.0260917760
