39
CONF5
C -2.6565462188 1.7892174981 -2.9704871067
C -1.8766503502 1.0966061241 -1.8949509915
O -1.7024010559 -0.1188086635 -1.9338559089
C -1.3672619144 1.9649253687 -0.7784396450
C -0.7168754939 1.2828577246 0.4357731165
C -1.6010342418 0.2923209864 1.1872794758
C -2.9750896500 0.1901440817 0.9593344061
C -3.7668223254 -0.6647113140 1.7252225176
C -3.1990125247 -1.4307555948 2.7376265231
C -1.8307533666 -1.3278000959 2.9833549570
C -1.0446349464 -0.4739827530 2.2185813772
C 0.6920590166 0.7815582726 0.1660339323
C 1.0215197107 -0.4849506184 -0.2637033644
O 0.1267806565 -1.4026904164 -0.6197254108
C 2.4007109797 -0.9076982730 -0.3228266675
C 2.7959199300 -2.2053526421 -0.6858402263
C 4.1378816848 -2.5439788067 -0.7080003511
C 5.1083473047 -1.5903611282 -0.3782369210
C 4.7408666790 -0.2997626901 -0.0271916009
C 3.3886252098 0.0286459489 -0.0008380803
O 3.0637452624 1.3097642995 0.3346391586
C 1.7412690321 1.7315260879 0.4379446428
O 1.5844261462 2.8988068030 0.7601669256
H -2.2118914494 2.7563431225 -3.2201147149
H -2.7409437401 1.1562308003 -3.8543731401
H -3.6617875495 1.9905014902 -2.5777976125
H -0.6416733034 2.6569502725 -1.2281582421
H -2.1981572822 2.6109854865 -0.4638230411
H -0.5612154293 2.1112798506 1.1384168032
H -3.4519149319 0.7764276401 0.1811389731
H -4.8318193648 -0.7295014549 1.5239510219
H -3.8146913891 -2.0993212461 3.3309935097
H -1.3733393980 -1.9142989023 3.7744281578
H 0.0204614693 -0.4019400259 2.4202404744
H -0.7088290330 -0.9444935028 -0.9211980742
H 2.0354873612 -2.9330323855 -0.9438003884
H 4.4380272677 -3.5489147537 -0.9843544664
H 6.1598317039 -1.8577666484 -0.3988828463
H 5.4773846390 0.4550298510 0.2257339201
