56
CONF5
C -3.0252455835 1.8321576599 -0.6712314545
C -2.6224939045 0.3882069868 -0.2701834621
C -3.3445771012 -0.6102578994 -1.1932058302
C -4.8531813930 -0.6444772382 -0.9674764994
C -5.1826909293 -0.9228418720 0.4803611066
O -6.2434893844 -1.4625138497 0.8088313760
C -4.2233029453 -0.4612426822 1.4705768460
C -3.0711314383 0.1794353589 1.1623208950
C -2.2582952904 0.8286013302 2.2403869180
C -0.7519144405 0.6165948241 2.0783548868
C -0.2957488607 1.0212600035 0.6733838344
C -1.0660121367 0.2655845467 -0.4283566873
C -0.5473059946 -1.1626349385 -0.6191796436
C 0.9685006785 -1.1866370680 -0.8489086656
C 1.8154716863 -0.4658342729 0.2171115724
C 1.2306316901 0.9398052847 0.4903605626
C 1.7450915226 1.8325805156 -0.6681055467
C 2.9448613120 1.1080263159 -1.3089677824
C 3.2158861744 -0.1226562682 -0.4223579085
C 4.2272556542 0.2610917494 0.6554832222
O 4.1178805727 1.2765280590 1.3273976279
C 5.4303140996 -0.6299551284 0.8725882378
O 6.2321441656 -0.1592727651 1.9347465579
O 3.7531778228 -1.1723826210 -1.2275720192
C 1.9842980272 -1.3392972218 1.4654132275
O -0.9686772227 -1.9745934456 0.4922873513
H -4.0944278989 2.0005265822 -0.5186910406
H -2.7930614444 1.9910225931 -1.7294101064
H -2.4875405924 2.5805175891 -0.0858752674
H -2.9672906687 -1.6164585289 -0.9903505069
H -3.1164818078 -0.3720716957 -2.2388097554
H -5.3329352943 -1.4068060802 -1.5887519007
H -5.3232790855 0.3142351072 -1.2262426634
H -4.5144343637 -0.5843839635 2.5119803224
H -2.4628353562 1.9097204715 2.1890365241
H -2.6061685225 0.4906161890 3.2213870674
H -0.2204035504 1.2247730646 2.8198597186
H -0.5156602094 -0.4288248072 2.2791996274
H -0.5388121910 2.0886437902 0.5682868578
H -0.8417197920 0.7575024642 -1.3857658553
H -0.9915982618 -1.5694425007 -1.5391780113
H 1.2875872367 -2.2322904078 -0.9432275847
H 1.1377388441 -0.7285847611 -1.8304356427
H 1.6806692786 1.3074106475 1.4187053011
H 2.0252929050 2.8162192534 -0.2821152756
H 0.9624198683 1.9961676190 -1.4161600391
H 3.8310167884 1.7427079660 -1.3922007137
H 2.7095298749 0.7441291934 -2.3125140593
H 5.9972599211 -0.6653749618 -0.0703082038
H 5.0869036160 -1.6572140023 1.0715944918
H 5.8128532529 0.6688443908 2.2292766368
H 3.6708816559 -2.0113483015 -0.7545455572
H 2.4792030863 -0.7895572030 2.2733306083
H 1.0205968859 -1.6930574074 1.8297932302
H 2.5832708546 -2.2313834646 1.2384078812
H -0.6900206253 -2.8815138922 0.3115646714
