48
CONF42
C -3.2689114569 1.8389017077 -0.7230562658
Si -1.8508062553 1.5322571188 0.4306439099
O -2.2294176786 1.9126744654 1.9944670505
O -1.4233297044 -0.0402805680 0.4452490960
Si -1.7194348332 -1.5565600176 1.0267528086
C -3.1432865613 -2.2934273359 0.0801631495
C -2.0216581041 -1.5058333677 2.8609665314
O -0.3517761921 -2.4377090232 0.7615797575
Si 0.8524168822 -2.5121613786 -0.3693329095
C 1.5668257367 -4.2275656756 -0.3020424651
C 0.1778045836 -2.0786778995 -2.0532903069
O 2.0592515535 -1.4686180279 0.0470565962
Si 2.3607109939 0.1345957402 0.2796286771
C 1.7774031748 0.6478414287 1.9742843186
C 4.1908689352 0.3922466577 0.0596054240
O 1.5682720085 0.9774901451 -0.8976421551
Si 0.6873283386 2.3509486822 -1.1214743323
C 1.7542951706 3.8453419865 -0.8207560494
C -0.0105069558 2.2770010085 -2.8454098167
O -0.5438833128 2.4136410508 -0.0182816653
H -3.5369632792 2.9007426826 -0.7416136527
H -4.1507350335 1.2681736254 -0.4133951393
H -3.0072663884 1.5380117257 -1.7430741111
H -2.5884390959 2.7925242196 2.1560718096
H -3.3227792753 -3.3301741621 0.3847855118
H -4.0621976185 -1.7229856339 0.2561724919
H -2.9371695721 -2.2832911440 -0.9958496631
H -1.1824594481 -1.0292643820 3.3792921541
H -2.9309293556 -0.9408501795 3.0914153280
H -2.1393377273 -2.5197683351 3.2588008956
H 1.9381024216 -4.4516184045 0.7041296279
H 2.4010229911 -4.3311238133 -1.0041444040
H 0.8091040460 -4.9750116274 -0.5603992535
H -0.5819478028 -2.8043028924 -2.3643665101
H 0.9776892011 -2.0808683805 -2.8020233694
H -0.2785802862 -1.0833146871 -2.0468382510
H 0.7050836507 0.4612939338 2.0903971295
H 2.3107529502 0.0841093188 2.7478459576
H 1.9591775699 1.7148149358 2.1461447381
H 4.7615257278 -0.1985998792 0.7842200485
H 4.5050298097 0.0956177308 -0.9472313470
H 4.4516952339 1.4471588532 0.2004768107
H 2.6076931534 3.8581225395 -1.5072396799
H 2.1416955591 3.8412103606 0.2044435703
H 1.1854505770 4.7700866200 -0.9656768325
H 0.7933220755 2.2694986487 -3.5895868279
H -0.6064554172 1.3674611256 -2.9817249963
H -0.6542507093 3.1402407045 -3.0457034019
