35
CONF10
C 4.9616107071 -1.8122691119 0.9783683104
O 4.4499286833 -0.8813517081 0.0279501158
C 3.1336458091 -0.5467655908 0.1171621262
C 2.2517986464 -1.0447118855 1.0814566206
C 0.9239614043 -0.6344055720 1.0673702364
C 0.4454688329 0.2670247504 0.1146413653
C 1.3434608597 0.7598926674 -0.8360839241
C 2.6707703213 0.3593228597 -0.8401548015
C -1.0089586049 0.7142174331 0.1882768878
C -1.4328727127 1.5508707888 -1.0200206054
C -2.6050015439 2.4767484037 -0.8998671161
C -1.2145930127 3.0364171982 -1.0586391611
C -1.9481573562 -0.4794466703 0.2529967542
C -3.0247514975 -0.5487863403 1.1331309421
N -3.8804358897 -1.5783816370 1.1397408966
C -3.6478939547 -2.5409288371 0.2470869850
N -2.6496750109 -2.5894048521 -0.6412141924
C -1.8094018420 -1.5537443440 -0.6242025873
O -1.2075420535 1.4638553334 1.4046167672
H 4.4478453865 -2.7793700923 0.9049507261
H 6.0153081973 -1.9419389296 0.7289380054
H 4.8744932092 -1.4257239546 2.0019962283
H 2.5813011667 -1.7488338855 1.8352643861
H 0.2411361172 -1.0289878070 1.8145271126
H 1.0043502448 1.4703421695 -1.5814549505
H 3.3685566934 0.7373331236 -1.5794595993
H -1.3374567812 1.0184955169 -1.9636242519
H -3.2878012250 2.5439298126 -1.7393260439
H -3.0578002930 2.5712025801 0.0809748123
H -0.7724049885 3.5063847046 -0.1865786011
H -0.9416941990 3.4858928753 -2.0079115212
H -3.1954886649 0.2405048581 1.8599100642
H -4.3428193750 -3.3803738052 0.2425628767
H -0.9792198447 -1.5831035228 -1.3307393480
H -0.3696665717 1.8960934074 1.6034486765
