47
CONF62
C -4.3183910557 1.8584263869 2.6887686255
O -3.5546036069 1.9431624912 1.4589621692
C -2.2426462607 2.0981113413 1.6097342482
C -1.4046462021 2.1551971273 0.5467564156
C -1.8892927005 2.0202755744 -0.8440583393
C -1.7544205487 3.0645115952 -1.7668739618
C -2.2247855952 2.9430309082 -3.0692679186
C -2.8449348507 1.7653576060 -3.4819686702
C -2.9864044434 0.7085819697 -2.5885348580
C -2.5074505222 0.8493789075 -1.2941492871
O -2.7215981735 -0.2151971606 -0.4122401425
C -1.6617671504 -0.9531914827 -0.0091703373
C -0.3870072747 -0.8241522449 -0.5455771853
C 0.5567729951 -1.6910471393 -0.0114858468
N 0.2980063962 -2.5940284315 0.9275600395
C -0.9696746245 -2.6154000779 1.3550118437
N -1.9691628322 -1.8420554894 0.9431607589
O 1.8223261788 -1.5908427691 -0.5090337490
C 2.7917799979 -2.4712993284 -0.0444145386
C 3.1858571932 -3.5198080207 -0.8551093044
C 4.2224845594 -4.3503944863 -0.4358660097
C 4.8593456485 -4.1309391464 0.7842725927
C 4.4656840351 -3.0770537577 1.5960864075
C 3.4234415981 -2.2339643378 1.1841058536
C 3.0034093825 -1.1543199722 2.0030515249
N 2.6633242488 -0.2790491608 2.6817306757
C 0.0184891304 2.3605721886 0.8475875811
O 0.4907771030 2.5500096632 1.9593512794
O 0.7768096226 2.3036877560 -0.2700087263
C 2.1991925843 2.4723286736 -0.0695874277
H -4.0088153880 0.9778197205 3.2583158397
H -5.3604642648 1.7642416112 2.3864230007
H -4.1759617784 2.7679913915 3.2790286692
H -1.8597738555 2.1884760528 2.6254364025
H -1.2777967640 3.9844352506 -1.4433518918
H -2.1124076173 3.7710651538 -3.7614527235
H -3.2163550798 1.6659747096 -4.4965704533
H -3.4588182722 -0.2231565756 -2.8814007967
H -0.1313791176 -0.1086717120 -1.3153420675
H -1.2059281413 -3.3475766502 2.1258491853
H 2.6819671481 -3.6761217552 -1.8025249263
H 4.5334356755 -5.1738924937 -1.0698699245
H 5.6662330312 -4.7810962510 1.1032136075
H 4.9520041009 -2.8923529800 2.5472418137
H 2.5845048319 1.6875364388 0.5860798660
H 2.4082081898 3.4528566903 0.3655096257
H 2.6404321832 2.3925821149 -1.0625805585
