59
CONF6
C 1.1395305929 -2.9304804249 -0.2644666927
C 1.8133996833 -3.2541423909 -1.5999684627
C 3.2020730847 -2.6246370181 -1.4333657442
C 2.9798514331 -1.3323398474 -0.5952658214
C 1.5243793246 -1.4634312941 -0.0485409612
C 3.1538610813 -0.0740315617 -1.4423258050
C 2.9811085892 1.2029728815 -0.6614353350
O 2.5473672932 2.2230639961 -1.1762943663
N 3.3678429292 1.1863250722 0.6850518573
C 3.8887028426 0.0594109119 1.3300449336
O 4.2519243929 0.1313599895 2.4955515620
C 3.9927345293 -1.2225388094 0.5413796334
C 3.2069713005 2.4189573334 1.4868123131
C 1.9451051694 2.3892286596 2.3510875413
C 0.6631924673 2.2019887394 1.5440358444
C -0.5883567601 2.1960580169 2.4369837864
N -1.8024080969 1.6110372371 1.8466006822
C -2.1528011459 2.2391822089 0.5668356174
C -3.4515054616 1.6517560909 0.0205595867
N -3.3088060142 0.1989550861 -0.1293130776
C -3.0046231659 -0.4217549921 1.1650741584
C -1.7000959539 0.1534895960 1.7089112244
C -2.7767883595 -0.3250424448 -1.2806284734
N -2.7677505937 0.4639558137 -2.3816674570
C -2.2855207884 -0.0805042140 -3.4970627984
C -1.8056990203 -1.3837112904 -3.5626929605
C -1.8675349548 -2.1090037118 -2.3786877603
N -2.3398056348 -1.6067682497 -1.2396289997
H 1.5709160996 -3.5557984266 0.5276812798
H 0.0565722872 -3.0857812250 -0.2651294994
H 1.8574228466 -4.3246967110 -1.8221892000
H 1.2670842612 -2.7626182084 -2.4158323504
H 3.6995810017 -2.4118954276 -2.3847240442
H 3.8462238019 -3.3126601169 -0.8727188404
H 0.8508399710 -0.8235356877 -0.6343530441
H 1.4420305102 -1.1500175906 0.9980800771
H 4.1674046301 -0.0506863081 -1.8687140624
H 2.4469496136 -0.0382113245 -2.2759295516
H 3.8922330606 -2.0427891784 1.2588439948
H 5.0151996131 -1.2706817074 0.1386833739
H 3.1679965238 3.2505621831 0.7817460786
H 4.0960165904 2.5222750172 2.1124394260
H 2.0320197607 1.5893627909 3.0962338679
H 1.9078198261 3.3361367589 2.9056027754
H 0.7243631822 1.2530451410 0.9986879526
H 0.5879371022 2.9922440790 0.7888094903
H -0.8199767532 3.2266800650 2.7401340420
H -0.3737259493 1.6333379621 3.3556868734
H -2.2718747759 3.3184567353 0.7261980011
H -1.3663757869 2.0975603543 -0.1992056749
H -3.7033858226 2.1040520549 -0.9377997572
H -4.2713312978 1.8315028850 0.7260054837
H -3.8315125760 -0.1884743144 1.8459774624
H -2.9307842906 -1.5027627861 1.0540108021
H -1.4887587807 -0.2774163776 2.6951856671
H -0.8865426519 -0.1530444614 1.0249556323
H -2.2799021176 0.5591269107 -4.3792703313
H -1.4104659594 -1.8071874394 -4.4774587251
H -1.5189113362 -3.1409131821 -2.3402881880
