33
CONF17
O -4.4540967680 3.1338196499 0.0071061645
C -3.7674721457 1.9616868124 -0.0105875968
C -4.5274497046 0.7977392776 -0.0786189337
C -3.8739816297 -0.4268925832 -0.0989864971
O -4.5948339296 -1.5472463500 -0.1907064845
C -2.4501874473 -0.4953201795 -0.0443736188
C -1.7672333541 -1.7529769924 -0.1866114011
O -2.3591545603 -2.8398320885 -0.2960980294
C -0.2593188643 -1.6792518691 -0.2428633999
C 0.2577468118 -0.4913931111 0.5613737505
O -0.3676018506 0.7334892358 0.0906668690
C -1.7247493520 0.7160275842 0.0386359423
C -2.3685855067 1.9411637520 0.0520660007
C 1.7439864143 -0.3165840814 0.4642290477
C 2.5729529561 -0.7453984048 1.4963335338
C 3.9573669680 -0.6541196369 1.3794091375
C 4.5252665080 -0.1188724338 0.2325721285
O 5.8792510272 -0.0214059796 0.1308953147
C 3.6902355575 0.3237685146 -0.8047093971
O 4.3403833000 0.8519070497 -1.8953640382
C 2.3142585115 0.2196225567 -0.6941784731
H -3.8304215611 3.8679902085 0.0523219779
H -5.6079612106 0.8454335765 -0.1239803282
H -3.9393974126 -2.2973440197 -0.2350997375
H 0.1676437231 -2.6130302420 0.1325883727
H 0.0458726826 -1.5747478785 -1.2933270565
H -0.0295485782 -0.6194816772 1.6160944561
H -1.7853393456 2.8522725866 0.1340289272
H 2.1396486268 -1.1554076669 2.4034506627
H 4.6130415556 -0.9838699921 2.1777373877
H 6.0896199789 0.3763537441 -0.7244698693
H 3.6947146966 1.1374697162 -2.5503313511
H 1.6753448027 0.5744302288 -1.4992036570
