45
CONF78
O -0.6324540099 -0.4359876273 -2.9066286189
C -1.9752424040 -0.8895561108 -2.8189151382
C -2.5663748126 -0.7595778644 -1.4308709986
O -1.7825730278 -1.5680079295 -0.5036519092
C -1.5688020526 -0.8627105785 0.7053217501
C -1.7349581279 -1.8147464446 1.8824901710
O -1.5240423377 -1.1153069408 3.1019289518
O -0.2696682372 -0.2540162009 0.7603509837
C 0.8278381170 -1.0339299512 0.3558198835
O 1.3591590878 -0.5412393741 -0.8679808001
C 1.7837399222 0.8483114245 -0.8033895107
C 2.1714117726 1.2917080171 -2.2093226693
O 1.0905511821 1.8303580847 -2.9485617840
C 2.9233328476 0.9557570800 0.2128096370
O 3.4089408201 2.2943414931 0.3538136787
C 2.4480647205 0.4334593618 1.5645894979
O 3.5039912791 0.3845377502 2.5219831775
C 1.9163900707 -0.9801130774 1.4271549171
O 1.3673295266 -1.4614671692 2.6555179364
C -2.5771638791 0.2980331601 0.6742083857
O -2.2543703077 1.4246378907 1.4543518688
C -2.5939907521 0.6339714895 -0.8126834005
O -3.7580708303 1.3109304170 -1.2567074223
H -0.1158423916 -0.8235927923 -2.1794728017
H -2.5719390753 -0.2816394480 -3.5075845062
H -2.0482698668 -1.9406886239 -3.1366615906
H -3.5958742920 -1.1487222123 -1.4543877543
H -1.0507065664 -2.6695949332 1.7769759890
H -2.7601684328 -2.1979352757 1.8868173006
H -0.5622303883 -0.9913153468 3.1636951297
H 0.5360818161 -2.0699829017 0.1508321783
H 0.9357880648 1.4653772939 -0.4660036363
H 2.6480261806 0.4414147830 -2.7239779428
H 2.9136400376 2.0912945059 -2.1210731627
H 0.4283661772 1.1316715928 -3.0853488597
H 3.7842675624 0.3650497911 -0.1261635358
H 2.6487338456 2.8740669230 0.4975841522
H 1.6305257685 1.0826707685 1.9248427196
H 3.9343999760 1.2492147938 2.5114516820
H 2.7387836648 -1.6357089975 1.1014567951
H 2.0429300760 -1.3241583611 3.3326639283
H -3.5670932804 -0.1088089777 0.9439912833
H -2.1220345546 1.1075687043 2.3587155850
H -1.6794074740 1.1909915421 -1.0661620930
H -3.7310144360 2.2034403565 -0.8938192567
