49
CONF56
C -5.0305745469 -1.9682167715 -0.2882232275
C -4.2985110394 -0.7320318873 -0.7315121529
C -3.6093025364 0.0098257593 0.1514800750
C -2.8475304283 1.2363989635 -0.1367395883
C -1.5765910542 1.5280157915 0.6761522740
C -2.8134390214 2.4279487952 0.7815822272
C -3.5414421544 2.3806454253 2.1071276662
C -2.7978354239 3.8038815141 0.1556909924
C -0.3666089419 1.9527897093 -0.0383152858
O -0.3132871812 2.4607608002 -1.1417095695
O 0.7393840344 1.7003205377 0.7279546128
C 2.0383524088 1.9870911808 0.1489770726
N 2.8062832917 0.7853322853 0.0756485877
C 3.5851472853 0.2652249687 1.1233778210
O 3.7682516701 0.8128592553 2.1922208421
C 4.1081800734 -1.0435037297 0.6461532171
C 3.6318991194 -1.2735889204 -0.5895219426
C 2.7684252414 -0.1299917083 -0.9895591575
O 2.1421700880 0.0254543564 -2.0189156680
C 3.9388126003 -2.4696282557 -1.4130354125
C 5.1248941729 -3.2274487807 -0.7959551380
C 4.9909205949 -3.3443861927 0.7279767979
C 4.9925327593 -1.9642410508 1.4034214384
C -4.4221425268 -0.4333560079 -2.1978891422
H -4.6636424472 -2.8487033558 -0.8312380216
H -4.9160588577 -2.1478312711 0.7839151309
H -6.1008778859 -1.8859298016 -0.5167313788
H -3.6030577405 -0.3226183932 1.1879368281
H -2.7330256421 1.5028179665 -1.1831888040
H -1.3984031301 0.8964501006 1.5400352240
H -3.1236860493 3.1306824778 2.7872510895
H -4.6019215593 2.6136310001 1.9572358668
H -3.4699813262 1.4056280162 2.5930157115
H -3.8289937018 4.1529005635 0.0314729421
H -2.2779607000 4.5161586065 0.8069049722
H -2.3120289637 3.8066102255 -0.8209445310
H 1.9118770614 2.4071184084 -0.8500516849
H 2.5363309057 2.6896977459 0.8194977858
H 4.1502948405 -2.1697990763 -2.4462191966
H 3.0473164481 -3.1113313488 -1.4602010252
H 5.1990299731 -4.2217868401 -1.2460728479
H 6.0527967021 -2.6927195037 -1.0356754396
H 5.8049813886 -3.9525175391 1.1332571576
H 4.0509459002 -3.8572658846 0.9682824863
H 4.6627931234 -2.0279294691 2.4470529848
H 6.0089139367 -1.5460221219 1.4306591190
H -5.4791171773 -0.3157899326 -2.4682133500
H -3.8899942978 0.4667351707 -2.5083352149
H -4.0445191908 -1.2783420780 -2.7873555221
