51
CONF6
O 4.5609441047 0.9319042047 -1.9010249059
C 3.6880849335 1.1861436438 -0.7805077753
C 2.4375391956 1.9429176641 -1.2503945165
C 1.5217360858 2.4478324772 -0.1268060656
C 0.5841165117 1.3999781252 0.4580302600
C -0.5882955180 0.8911118446 -0.4508999406
N -1.5116389889 1.4693440693 0.5613883989
C -0.5096172006 1.9448478701 1.3754579118
O -0.5374443852 2.5812946446 2.4142921363
C -2.9055808555 1.4866704162 0.6090234881
C -3.5766468095 1.9514919288 1.7489851282
C -4.9660153447 1.9603394699 1.7783782486
C -5.6606462199 1.4983641188 0.6727109336
F -7.0203611832 1.5040942381 0.7058638043
C -5.0245269745 1.0311025216 -0.4640324013
C -3.6344149303 1.0285431717 -0.4951658625
C -0.7149584692 -0.5884314774 -0.6553310294
C -0.9055393683 -1.4510517776 0.4287514783
C -0.9828087947 -2.8236569547 0.2453229993
C -0.8641189399 -3.3565781961 -1.0403510739
O -0.9362636372 -4.7151217152 -1.1645018994
C -0.6795670128 -2.5109737318 -2.1343632767
C -0.6100683740 -1.1360650765 -1.9334233041
C 3.3858209958 -0.1504687165 -0.1520655620
C 2.8742897757 -1.1931216254 -0.9304124904
C 2.5496729832 -2.4177640309 -0.3595965846
C 2.7304770191 -2.5707129577 1.0047452996
F 2.3919843832 -3.7589175846 1.5748754683
C 3.2407513498 -1.5695969768 1.8115582697
C 3.5786091129 -0.3561407216 1.2140275119
H 4.7462214472 1.7816818714 -2.3223899732
H 4.2111490467 1.8091180460 -0.0386424737
H 2.7876023331 2.8146193468 -1.8179292321
H 1.8767127394 1.3098661667 -1.9502044953
H 2.1291560488 2.8674272212 0.6858785498
H 0.9110400268 3.2710146645 -0.5172324750
H 1.1236042422 0.5692729378 0.9204879360
H -0.6435034200 1.4264853603 -1.4062451930
H -3.0123133963 2.3034637341 2.6035014474
H -5.5037238426 2.3174896627 2.6499839448
H -5.6042510566 0.6787330684 -1.3101169147
H -3.1181150791 0.6682099733 -1.3780294200
H -0.9983165835 -1.0453684250 1.4330085135
H -1.1304537195 -3.4927563468 1.0871461481
H -0.8490653120 -4.9593577860 -2.0960914931
H -0.5919779611 -2.9267819473 -3.1346889847
H -0.4685641541 -0.4798399564 -2.7884122642
H 2.7198936105 -1.0468342819 -1.9945677679
H 2.1437188491 -3.2311411643 -0.9504896840
H 3.3737680524 -1.7375115700 2.8748020496
H 3.9819044988 0.4448302727 1.8274032430
