41
CONF86
C 0.6007681214 -5.0468046537 0.8126566932
C 1.1435664243 -5.2061291002 2.2182718324
O 1.2470467932 -3.9249989248 2.8896286266
C 2.3625127867 -3.2041635131 2.5933057148
O 3.2597185873 -3.5763408342 1.8600008085
N 2.3461965115 -2.0163711278 3.2694096018
C 3.2997865824 -0.9798827044 2.9128903543
C 2.9092404336 -0.2248404939 1.6551594991
O 1.6786420757 0.4453019509 1.9411576526
C 1.0782086766 1.1409474844 0.9292762229
C -0.1385339967 1.7512561482 1.2538786739
C -0.8260536457 2.4877616818 0.3048360340
C -0.3052427569 2.6095838491 -0.9829624106
C 0.8980298250 2.0086281369 -1.3127606663
C 1.6011740778 1.2754774977 -0.3566483168
O -0.9266963402 3.4014673302 -1.9363597978
C -2.2384780747 3.1340625103 -2.2651685406
C -2.8212151846 1.8777412563 -2.1085565619
C -4.1388083400 1.6882656467 -2.5149743659
C -4.8696248437 2.7314781788 -3.0751291135
C -4.2699603268 3.9792404602 -3.2312021025
C -2.9578866434 4.1876561829 -2.8257455050
H -0.3673790187 -4.5380692572 0.8265748091
H 0.4659680997 -6.0325706641 0.3559006793
H 1.2975062187 -4.4751065106 0.1950817104
H 2.1266268954 -5.6855120318 2.2147272389
H 0.4606450844 -5.7816152189 2.8483934405
H 1.4588147952 -1.7264490383 3.6497699993
H 4.2747196297 -1.4494198301 2.7546442662
H 3.3836436282 -0.2809607272 3.7516631914
H 3.6889594544 0.5057120349 1.3921042508
H 2.7798967231 -0.9282109539 0.8208375321
H -0.5231633142 1.6452515559 2.2624666522
H -1.7663295145 2.9686727814 0.5533738665
H 1.2878603603 2.1215274371 -2.3184512679
H 2.5430096351 0.8182811282 -0.6324804159
H -2.2504128103 1.0622952089 -1.6789426364
H -4.5926675084 0.7094231475 -2.3958691623
H -5.8957635493 2.5739482311 -3.3888086033
H -4.8289894961 4.8010505781 -3.6673335391
H -2.4753350551 5.1524152620 -2.9374578198
