64
CONF674
C 8.2194292208 3.1479914616 -0.8759281146
C 7.9126989760 1.6873807097 -0.6200137605
O 8.8263574245 0.8494913648 -0.5714928561
N 6.6083592193 1.3366825378 -0.4653566954
C 5.4792943247 2.2665880223 -0.3984907901
C 4.8114816259 2.1527767320 0.9801562583
N 4.3963199650 0.7840487156 1.2921014334
C 5.5658818713 -0.1074152747 1.2207480911
C 6.2320145289 -0.0443701846 -0.1574070472
C 3.1821499579 0.3117708509 0.7470914371
C 2.7472125596 -0.9997023888 1.0301171950
C 1.5276427098 -1.4713025738 0.5762505197
C 0.6797048674 -0.6511968012 -0.1732762103
O -0.5073991341 -1.2128254489 -0.5723700100
C -1.4411691447 -0.3563615743 -1.2320030434
C -2.6836043141 -1.1702435304 -1.5235064917
C -3.7810047250 -0.3282279818 -2.1700756962
O -4.5157850114 0.1468965148 -1.0296119383
C -4.5235158873 -0.9193831819 -0.1051349030
C -4.5997737189 -0.3147870722 1.3069647833
N -3.4525284542 0.5128243653 1.6215300635
C -3.2783377710 1.8433304893 1.3045871986
C -2.0323808956 2.1738096401 1.7716492296
N -1.4348713033 1.0784208501 2.3647828410
C -2.3139343144 0.0996157996 2.2482080556
O -3.2971419498 -1.6238978024 -0.2962246537
C -5.7218679086 -1.8486376680 -0.3403222033
C -6.7714083057 -1.4020334332 -1.1473342126
C -7.8936912994 -2.1778735223 -1.4052736462
C -7.9718130695 -3.4365947191 -0.8268066094
Cl -9.3735693352 -4.4464647555 -1.1337792935
C -6.9673705659 -3.9215644771 -0.0014143214
C -5.8566077787 -3.1171084552 0.2344083858
Cl -4.6399243636 -3.7873272427 1.3142202338
C 1.0803886971 0.6504868342 -0.4573308548
C 2.3181306311 1.1175248454 -0.0085951101
H 7.9556640366 3.7670448182 -0.0123975371
H 7.6720811953 3.5303167445 -1.7427557414
H 9.2896020149 3.2385915123 -1.0598909970
H 5.8103774588 3.2910126795 -0.5644107666
H 4.7654656005 2.0052967932 -1.1910637071
H 3.9612862725 2.8352031081 1.0536460720
H 5.5417412904 2.4551085550 1.7419174370
H 6.2838777092 0.2142527323 1.9856172410
H 5.2850051578 -1.1371128513 1.4437154832
H 5.5252454981 -0.3987542569 -0.9215312515
H 7.1271542174 -0.6672193571 -0.1847857739
H 3.3547610843 -1.6584584827 1.6398921376
H 1.2104707965 -2.4819837377 0.8149033628
H -1.0248131289 0.0042692740 -2.1843145318
H -1.6885029804 0.5065170877 -0.5961582654
H -2.4273531407 -2.0518856616 -2.1201762400
H -3.4087819201 0.5405704271 -2.7161607778
H -4.4225814510 -0.9361978532 -2.8196795753
H -5.5132945611 0.2838272042 1.3694249140
H -4.6636088408 -1.1202769727 2.0411228060
H -4.0432154214 2.4109639540 0.7976663497
H -1.5374784804 3.1339401063 1.7189591398
H -2.1952233540 -0.9170221466 2.6014558825
H -6.6973400448 -0.4160192655 -1.5912671511
H -8.6882773521 -1.8072628154 -2.0419223364
H -7.0429022901 -4.9019248969 0.4527214934
H 0.4531359578 1.3220319043 -1.0316279907
H 2.5881372726 2.1328498463 -0.2698911327
