53
CONF34
C -0.3351302083 -2.4296424028 -0.3247333575
N 0.5921704845 -2.1426237414 -1.4135808781
C 1.8545684073 -2.8723146061 -1.2619293346
C 2.6941252547 -2.7442830746 -2.5298765496
C 2.9447286308 -1.2739107494 -2.8642180633
C 1.6234094583 -0.5018975892 -2.9097225325
C 0.7980528043 -0.6974752159 -1.6305276148
C 1.4163887408 0.0663773211 -0.4327745400
C 0.8738707271 1.4927454170 -0.3143317630
N -0.5770000377 1.5145465643 -0.0761568825
C -1.3701751120 2.4949532242 -0.7034358398
C -0.8404140453 3.7148582607 -1.1407379210
C -1.6500083756 4.6424123562 -1.7919467923
C -3.0055173048 4.3926981140 -1.9818543188
C -3.5552504375 3.2022068235 -1.5118275323
C -2.7403857182 2.2579225451 -0.8957835414
S -3.4180209274 0.6853198654 -0.4029892074
C -2.4338767333 0.4175049073 1.0479108279
C -1.0955408051 0.8555630088 1.0441066556
C -0.3106130587 0.5900922128 2.1708672172
C -0.8478489697 -0.1533602596 3.2159106351
C -2.1608963467 -0.6064645113 3.2167309094
C -2.9638396705 -0.2829423371 2.1274537676
S 0.2252606924 -0.5738488365 4.5921884516
O 1.2315652658 0.5032051950 4.7471573587
O -0.6229861658 -0.9236354547 5.7551844391
C 1.0771577100 -2.0633659659 4.0378811107
H 0.0547729133 -2.1827372356 0.6816735124
H -0.5794173825 -3.4979956540 -0.3282726797
H -1.2617838082 -1.8630584718 -0.4715159175
H 2.4368841910 -2.5139183724 -0.3881955786
H 1.6159437623 -3.9258711793 -1.0714024941
H 2.1553043744 -3.2232797953 -3.3579809402
H 3.6418765276 -3.2790027080 -2.3989555250
H 3.6103059952 -0.8401253024 -2.1068907838
H 3.4635608487 -1.1813461789 -3.8251961438
H 1.0296175204 -0.8536034289 -3.7628481877
H 1.8079112156 0.5685969357 -3.0620308675
H -0.2043149023 -0.2788883706 -1.7997498465
H 2.5030586815 0.1492254397 -0.5366432284
H 1.2458784253 -0.4828725272 0.4972284795
H 1.0405955110 2.0057478090 -1.2651937274
H 1.4211412671 2.0585376400 0.4535775378
H 0.2048127778 3.9458959327 -0.9711108079
H -1.2132679579 5.5742329921 -2.1366582768
H -3.6368896108 5.1188958852 -2.4824214056
H -4.6127316661 2.9933545622 -1.6412887465
H 0.7112232471 0.9440140445 2.2300425480
H -2.5530788123 -1.1837702231 4.0454661857
H -4.0005237764 -0.6028245708 2.1021094762
H 1.7473058362 -2.3587779046 4.8501131167
H 0.3285142256 -2.8346528193 3.8440512718
H 1.6395064430 -1.8204177496 3.1331286104
