14
CONF4
C 0.6792093375 -0.3193097419 -0.1114251856
C -0.6794075557 0.3196041559 0.1117128795
C -1.5150800098 0.3335409339 -1.1378219529
O -1.1679382765 -0.0709851812 -2.2281904587
O -2.7336239154 0.8672498709 -0.9064158557
C 1.5206521382 -0.3205022329 1.1342954590
O 1.2057966122 0.1589212355 2.2038611017
O 2.7066301535 -0.9307625020 0.9236524056
H 0.5809396699 -1.3540324388 -0.4578061010
H 1.2395717613 0.2049586584 -0.8939947555
H -0.5782922199 1.3541982022 0.4590425324
H -1.2420750167 -0.2033757816 0.8928636071
H -3.2314871137 0.8597768888 -1.7417122665
H 3.2151044298 -0.8992820777 1.7519382942
