24
CONF82
C 2.2117118888 1.0849933326 0.7818165740
C 1.8717245548 0.2497800535 -0.4587840414
C 0.5362021748 -0.5064986894 -0.3804798219
C -0.7103021298 0.3838212132 -0.5764142553
C -1.9229284484 -0.4706188145 -0.9996320479
C -3.1640481356 0.3904221854 -1.0211910136
O -4.1478996890 0.0948733359 -0.3829151777
O -2.1105290039 -1.5722801758 -0.1299945075
O -1.0200987694 1.1351543786 0.5871449387
O 0.4536642403 -1.1639889125 0.8937228072
O 2.9286194569 -0.6617689913 -0.7264956586
O 2.6676309004 0.2553526175 1.8537535274
H 3.0521607939 1.7421491233 0.5380821284
H 1.3549854513 1.7042570433 1.0771989458
H 1.8049372777 0.9247753510 -1.3243119065
H 0.5607156670 -1.2539500137 -1.1878644273
H -0.5161037786 1.1055672713 -1.3822703820
H -1.7462773824 -0.8303793544 -2.0303217610
H -3.1203644221 1.3042302543 -1.6477620530
H -3.0152581445 -1.4829316074 0.2201147997
H -0.8533887924 0.5475617814 1.3393573699
H -0.3295366911 -1.7352297714 0.8619680412
H 3.2815023231 -0.9138456656 0.1404528986
H 1.9328808591 -0.3314457336 2.0805184150
