70
CONF158
C -1.3255401684 -1.4730184764 1.7614984972
C -2.6088683883 -1.7471139500 2.5795009798
C -2.3150577774 -1.5826828111 4.0342897128
C -2.8367540090 -2.1046045875 5.1892939582
N -2.1267928176 -1.6012888338 6.2784133664
C -1.1292558598 -0.7623187073 5.8306566103
C -0.1299435270 -0.0239190681 6.4656390261
C 0.7253030963 0.7025170065 5.6438166892
C 0.6098662291 0.7136100687 4.2371858479
C -0.3916646551 -0.0116855795 3.6053481917
C -1.2438335422 -0.7422157762 4.4289098230
C -0.6949859629 -0.0932599291 2.1239778450
C 0.5260298942 0.2106692143 1.2567838090
C 0.1589941807 0.0897312875 -0.2275611063
C -0.3879777132 -1.3112177508 -0.4721317614
N -1.6115881620 -1.4998304578 0.3154101537
C -2.3441472870 -2.6958163317 -0.1368782946
C -1.6973526550 -4.0182585662 0.1795118574
C -2.3141790083 -5.0281851815 0.7866701276
C 1.3721603766 0.3411221666 -1.1057463168
O 2.0242441310 -0.6229088458 -1.5090588194
N 1.7534452686 1.6549858358 -1.3464627077
C 0.8896758780 2.8050328636 -1.0068573856
C 0.0674505924 3.3342829566 -2.1853899155
C -1.0931551704 2.4525785246 -2.6397690392
N -0.7103149688 1.1129141557 -3.0969492903
C 0.1221542083 1.1545161128 -4.2957064838
C -1.9105088656 0.3172725458 -3.3372233537
C 2.9409764353 2.0432432591 -2.0709023853
O 3.1497407704 3.2334664161 -2.2813826446
N 3.7718576284 1.0546536312 -2.4603316219
C 4.9341990656 1.3636382385 -3.2828397377
C 4.5756774128 1.5918308485 -4.7499990124
H -0.5824470406 -2.2516910740 2.0334300703
H -3.3850376839 -1.0426867474 2.2463093584
H -2.9718918964 -2.7578836360 2.3774387600
H -3.6518929807 -2.7968935855 5.3459367288
H -2.3035416302 -1.8417611064 7.2371354405
H -0.0104358459 -0.0123954756 7.5441308217
H 1.5187307484 1.2839923597 6.1025379922
H 1.3220377828 1.2996230632 3.6658938917
H -1.4659402528 0.6607750910 1.8923434900
H 0.9065984069 1.2121927347 1.4854767943
H 1.3316210010 -0.4994815176 1.4871361878
H -0.6435976660 0.7914309243 -0.4615422306
H -0.6275688822 -1.4284291097 -1.5334728048
H 0.3975436516 -2.0464544526 -0.2287568796
H -3.3629141945 -2.6794620433 0.2655267868
H -2.4447660605 -2.5998455883 -1.2271979616
H -0.6583573691 -4.1374897058 -0.1252984979
H -3.3527565755 -4.9485716344 1.1019834489
H -1.8132818676 -5.9711593228 0.9813008205
H 1.5470231373 3.6016860109 -0.6526589025
H 0.2367037316 2.5257091591 -0.1802448421
H -0.3635741235 4.2934433553 -1.8714155350
H 0.7433404268 3.5698287465 -3.0119539737
H -1.6558960415 2.9922491364 -3.4312446608
H -1.7922363044 2.3238560960 -1.8007836797
H 0.3703302907 0.1323543506 -4.5982969895
H 1.0626724662 1.6753801667 -4.0956617816
H -0.3784612554 1.6587911491 -5.1459377154
H -2.4769867199 0.2067000518 -2.4045845533
H -2.5785766114 0.7698604963 -4.0968945417
H -1.6305289553 -0.6817702710 -3.6879597704
H 3.4484009242 0.1021496037 -2.3140248245
H 5.4195708930 2.2553763391 -2.8742674481
H 5.6325243603 0.5258006906 -3.1839050942
H 5.4766191036 1.8018621671 -5.3353341751
H 3.8998592716 2.4463035075 -4.8428189759
H 4.0872576233 0.7088695108 -5.1740406479
