35
CONF3
C 3.8368970022 -0.1356513797 -0.2935750272
C 2.3582095983 -0.1959484307 -0.0352546944
C 1.7440754245 -1.0892125793 0.8467338617
C 0.3631259537 -1.2136390746 0.9609740441
C -0.5198459028 -0.4081939462 0.2562461320
C 0.0584486293 0.5404886408 -0.6174035812
C 1.4551943987 0.5897641838 -0.7553473816
N 2.0200887537 1.4709414577 -1.7989157104
O 1.7173329510 1.2162626380 -2.9556882222
O 2.7560616996 2.3784090597 -1.4365548504
O -0.7721410859 1.3457928754 -1.3177665012
C -0.4706713306 2.7489274436 -1.4667385398
C -2.0380979028 -0.5342944453 0.4339229411
C -2.3917025072 -1.6354901254 1.4443897985
C -2.6948510127 -0.9080119842 -0.9100620969
C -2.6225735712 0.7881794752 0.9696926577
N 2.5461224396 -1.9552480113 1.7253911001
O 3.6423807795 -1.5404076808 2.0874098008
O 2.0576704172 -3.0289039837 2.0609260589
H 4.3226491787 0.5480159542 0.4080249062
H 4.2953542169 -1.1149172453 -0.1599616065
H 4.0466640487 0.2126814433 -1.3058527329
H -0.0024173400 -1.9551631935 1.6564897066
H 0.0040240898 2.9438455358 -2.4319724478
H -1.4330434082 3.2635903170 -1.4271795024
H 0.1659341963 3.0993280075 -0.6486425295
H -1.9987172851 -1.4189644518 2.4431817761
H -2.0271032030 -2.6176026756 1.1268821339
H -3.4804115078 -1.6993481531 1.5260743462
H -3.7740298166 -1.0269508126 -0.7665605441
H -2.2960760165 -1.8579346678 -1.2804011316
H -2.5320652406 -0.1446195118 -1.6712449051
H -3.6946081941 0.6625739873 1.1540417786
H -2.4958168325 1.6083272648 0.2625694925
H -2.1460617206 1.0633745819 1.9161722798
