38
CONF14
C -7.5181486084 -1.4002097844 0.4111757542
C -6.1222214485 -0.9873762584 0.8113384220
O -5.3863290210 -0.7266451089 -0.4191917801
C -4.0975783294 -0.3459359803 -0.2530474348
O -3.5487481162 -0.2191468091 0.8279909709
N -3.5326181845 -0.1334862151 -1.4827750215
C -2.2249623241 0.2710719067 -1.7759389227
C -1.2495451121 0.4972459929 -0.7977233373
C 0.0129007839 0.8991217561 -1.2060006291
C 0.3561546664 1.0870241275 -2.5361033352
C -0.6238918793 0.8501512080 -3.4964118406
C -1.9004376185 0.4484698956 -3.1289939295
O 0.9381207241 1.1873637919 -0.1971205052
C 2.0181875404 0.3357885417 -0.0830202886
O 2.1622981752 -0.6701579345 -0.7459996573
N 2.8404551282 0.8215469464 0.8855686631
C 4.0404770099 0.2636896941 1.3611162622
C 4.6488851140 0.9085784463 2.4470298843
C 5.8397469859 0.4243618882 2.9709267844
C 6.4427059421 -0.7076557234 2.4252981254
C 5.8359626924 -1.3435379442 1.3463750239
C 4.6423834134 -0.8712250725 0.8059902348
H -7.4985810512 -2.3081065986 -0.1981446964
H -8.1033643743 -1.6023098929 1.3128533061
H -8.0152227990 -0.6053518973 -0.1518982944
H -6.1233815784 -0.0756209066 1.4168666287
H -5.6054919741 -1.7763701001 1.3665389004
H -4.1412332589 -0.2807882017 -2.2754525882
H -1.4621413187 0.3664690047 0.2531132130
H 1.3562116629 1.4047758024 -2.8078014403
H -0.3903433428 0.9849384715 -4.5474478919
H -2.6556743983 0.2718696609 -3.8889306485
H 2.5301989192 1.6702397877 1.3380551000
H 4.1826663006 1.7904576210 2.8778748110
H 6.2962123974 0.9366781264 3.8120533936
H 7.3726524921 -1.0866558966 2.8358120487
H 6.2944356137 -2.2249819775 0.9085591115
H 4.1861286842 -1.3760850927 -0.0331753162
