39
CONF4
C -2.2935840289 -2.4079592088 -0.0069073173
C -1.8459496643 -1.0116646024 -0.3256086328
C -2.5626160492 -0.1869240492 -1.1010454109
C -2.1529434329 1.2048001152 -1.4981355979
C -0.6981880042 1.5556972151 -1.1237936353
C -0.3430027897 0.9755687215 0.2542337586
C -0.5133005432 -0.5675196654 0.2008323294
C -0.1231278898 -0.9838401189 1.6423407169
C 0.9663775414 0.0639505496 2.0313207513
C 1.1449206940 0.8825624525 0.7324772724
C 1.8495415752 -0.0349594747 -0.3157809555
C 0.6716305071 -0.9835946963 -0.7224445579
C 3.0214008102 -0.8578246669 0.2462537870
C 2.4406988080 0.7832879485 -1.4779572080
C -1.2464827279 1.6896566444 1.2729349306
H -1.5492574608 -3.1413837011 -0.3425385896
H -3.2461143539 -2.6425246132 -0.4893862486
H -2.4096482096 -2.5525994633 1.0737720190
H -3.5217920658 -0.5310744360 -1.4872589498
H -2.8577815679 1.9278127530 -1.0627429423
H -2.2760781338 1.3154530949 -2.5838426503
H -0.0566540516 1.1494164040 -1.9028914622
H -0.5599511671 2.6442125104 -1.1334105429
H 0.2542714738 -2.0111726592 1.6756504563
H -0.9843609193 -0.9337286476 2.3158179179
H 1.8968242528 -0.3958489362 2.3640013017
H 0.6336552776 0.7010985257 2.8531623400
H 1.6607361106 1.8376074879 0.8828090212
H 0.9341496419 -2.0368333145 -0.5741381029
H 0.3950150881 -0.8687714388 -1.7743811097
H 2.6989929978 -1.6357980672 0.9426105738
H 3.7516060787 -0.2169246185 0.7543623843
H 3.5376334816 -1.3585695550 -0.5806030670
H 3.3942913316 1.2253009846 -1.1671625776
H 1.8022284616 1.6032920920 -1.8075342380
H 2.6421483689 0.1368143371 -2.3399149272
H -1.1594739037 1.3102800746 2.2895839317
H -0.9980270435 2.7571857006 1.2933129582
H -2.2977888112 1.5955183325 0.9920025803
