63
CONF80
C 2.6758398654 1.5482882180 -0.4897959212
C 1.5168260654 0.5560567674 -0.5593498370
N 1.3272612799 -0.0921239546 0.7410831680
C 0.9667968141 0.8940636919 1.7631173928
C 2.1002579902 1.9009673996 1.9444829228
C 2.3993431857 2.5786979637 0.6060277441
N 3.4681221714 3.5716071716 0.7144231779
C 4.8009866282 3.3728973541 1.0665031189
C 5.5272675155 2.2381394975 1.4080012480
C 6.8820786598 2.4004723878 1.7131477077
C 7.4936545946 3.6549037025 1.6783977127
C 6.7691372438 4.7988436035 1.3346277734
C 5.4272253747 4.6367448932 1.0325407704
N 4.4591335215 5.5514745646 0.6623865038
C 3.2443918395 4.9238237544 0.4602346897
O 2.1840849642 5.4491579351 0.1245799992
C 0.4055240132 -1.2317982937 0.6873991800
C -1.0409511077 -0.9458888458 0.2595515225
C -1.8739409730 -2.2256671984 0.2801750725
C -3.3291910309 -2.0185976771 -0.1760573632
C -3.4737616456 -1.5256089140 -1.6067106832
C -4.5678171014 -0.7186144825 -1.9357256173
C -4.7820714718 -0.2770170945 -3.2380858604
C -3.8748096605 -0.6581610323 -4.2116038995
C -2.7754179906 -1.4507208762 -3.9352658738
C -2.5833754506 -1.8807607023 -2.6237318115
F -4.0679771061 -0.2296494526 -5.4891111631
C -4.1392935007 -3.2866618582 0.0429221113
C -5.0995936492 -3.3445246714 1.0552433053
C -5.8285063498 -4.5081913470 1.2960215878
C -5.5731346943 -5.6121543546 0.5034669068
C -4.6306956848 -5.6017311882 -0.5117012110
C -3.9180368020 -4.4277178202 -0.7351345920
F -6.2771012872 -6.7556423456 0.7280644926
H 2.7895866449 2.0573407669 -1.4535106971
H 3.6047631910 1.0062396467 -0.2828015080
H 1.7310959816 -0.2156708037 -1.3082466385
H 0.6071374628 1.0945547409 -0.8906281629
H 0.0395764513 1.4425890220 1.5042013039
H 0.7814941673 0.3682846607 2.7071176937
H 2.9879389037 1.3807452635 2.3194192189
H 1.8141912485 2.6570556272 2.6842066801
H 1.5135069324 3.1564280416 0.3138547859
H 5.0750587153 1.2550362950 1.4413744949
H 7.4661191328 1.5266213153 1.9828295511
H 8.5471935578 3.7467061663 1.9211527097
H 7.2343898727 5.7783722321 1.3039888735
H 4.5871706684 6.5443786489 0.5464792768
H 0.3967745841 -1.6958858312 1.6835398026
H 0.8338797540 -1.9706903937 -0.0048021846
H -1.5004552243 -0.2096387829 0.9310123910
H -1.0529777617 -0.5130112768 -0.7471711903
H -1.3966256187 -2.9990562489 -0.3359996526
H -1.9005806628 -2.6270658615 1.3012579535
H -3.7665955657 -1.2475797815 0.4702216665
H -5.2693585242 -0.4302553409 -1.1573689127
H -5.6284235483 0.3512476673 -3.4943359929
H -2.0838643214 -1.7210009015 -4.7261314435
H -1.7162950155 -2.4954469784 -2.4047916477
H -5.2846393713 -2.4673418122 1.6687569311
H -6.5774121644 -4.5579330550 2.0792092078
H -4.4640410768 -6.4905556539 -1.1108305667
H -3.1808612160 -4.4043366844 -1.5321273032
