26
CONF452
C -2.3470268228 -1.2403837361 -0.3262035256
C -1.6167206052 -0.7385525979 0.9163205787
C -0.2862089943 -0.0443638908 0.6120690670
C 0.6822875667 -0.9323814545 -0.1882766444
C 2.1442896492 -0.4451553818 -0.2464426446
C 2.3996441329 0.9195885502 -0.8659877214
O 1.9724624705 1.9351515893 0.0673261236
O 2.7468659775 -0.5391321273 1.0512710477
O 0.6920852729 -2.2642389863 0.3399951041
O -0.6116982504 1.1468213895 -0.1162755304
O -2.4713618502 0.1693281351 1.6333198234
O -3.6156495002 -1.8006246311 0.0292837032
H -2.4734311224 -0.4166495744 -1.0446847520
H -1.7745715892 -2.0397557885 -0.8058741898
H -1.4391356679 -1.5811258622 1.5903564919
H 0.1683380798 0.2185453580 1.5815296706
H 0.3096205810 -1.0045964963 -1.2178683992
H 2.6687970090 -1.1768114747 -0.8739310394
H 1.8594524238 1.0075661977 -1.8181476504
H 3.4746069586 1.0255008485 -1.0521891740
H 2.5580950878 0.2890660299 1.5154929750
H 1.2309833842 -2.2331485154 1.1447631145
H 0.1679282536 1.7296790020 -0.0492570484
H -2.4169280985 1.0132235235 1.1588655217
H 2.3300070565 2.7845431261 -0.2192077235
H -4.0348920655 -1.1526262626 0.6133411434
