45
CONF23
C -2.1288022505 -0.4631847621 2.1806735921
C -2.2404627648 -0.8209510646 0.7341622589
C -1.9261255115 -0.0060592539 -0.2795941197
C -2.0827472659 -0.3895573614 -1.6902212220
C -0.9685841422 -0.1337092750 -2.7512463613
C -2.3038714108 0.5954148825 -2.8051802914
C -2.4302554313 2.0762679379 -2.5234673528
C -3.2064773337 0.1372282543 -3.9343646328
C 0.3591009396 0.3825992695 -2.3844698179
O 1.3932155902 -0.1839953193 -2.6923040957
O 0.3466462859 1.5312167149 -1.6625756556
C 1.6409204742 1.9998825604 -1.1927863056
C 2.0772952393 1.2061360001 0.0039439744
C 3.1695710486 0.3439836255 -0.0152222786
C 3.5021976110 -0.4200154331 1.0942761131
C 2.7780302639 -0.3571095761 2.2794696762
C 1.6991843470 0.5197283987 2.3017809329
C 1.3635649257 1.2847666922 1.1957348459
F 0.3175781636 2.1269058967 1.2818276325
F 0.9572951787 0.6438904004 3.4183374679
C 3.1315397041 -1.2461279924 3.4482528641
O 2.7477178258 -2.6001776123 3.2176287012
C 1.3287956222 -2.7709225102 3.1900132700
F 4.5645614575 -1.2408512840 1.0139409500
F 3.9387972225 0.2493456684 -1.1101923430
H -1.7510421681 0.5542680701 2.3140891026
H -1.4553840625 -1.1526155791 2.7051922859
H -3.1022745909 -0.5408163778 2.6805142694
H -2.6128495171 -1.8213632955 0.5075899791
H -1.5502229339 0.9888673245 -0.0578514114
H -2.5474002708 -1.3636085096 -1.8303616399
H -0.8613737554 -0.9490617888 -3.4593978212
H -3.4841385668 2.3098882474 -2.3360081607
H -2.1089462216 2.6511235045 -3.3987916635
H -1.8465167890 2.4091191272 -1.6680855015
H -2.9636914774 0.6730964838 -4.8587848955
H -4.2526902739 0.3451172526 -3.6842086618
H -3.1045075151 -0.9357004750 -4.1203583390
H 2.3775424808 1.9357648748 -1.9936300341
H 1.4673020366 3.0425923102 -0.9232798050
H 2.6617704994 -0.8603313702 4.3618874435
H 4.2154818403 -1.2575201612 3.5850520449
H 0.8757371477 -2.2467491615 2.3362006310
H 1.1430839906 -3.8418784210 3.0881405429
H 0.8714351623 -2.4048972141 4.1203409418
