42
CONF122
C -6.0062198573 2.2849650573 1.9442286347
C -4.7608743180 1.6815369974 2.5880559327
C -4.0435732825 0.6734678118 1.7185558539
O -4.9084843896 -0.3864091342 1.3391739257
C -4.2739666916 -0.9681207605 0.1953650667
C -3.6267168989 0.2383718648 -0.5159387197
O -3.6167539267 1.2703978873 0.4875107885
C -2.2378844070 -0.0238871105 -1.0586296547
O -1.4072247459 -0.4521582029 0.0268928650
C -0.1077419394 -0.7658872244 -0.2455569971
C 0.6563023334 -1.1786100914 0.8521099804
C 1.9896003047 -1.5225468352 0.6829727350
C 2.5571078683 -1.4595029739 -0.5854581548
C 1.8091089628 -1.0539192277 -1.6800959653
C 0.4698522822 -0.7020635784 -1.5170772933
O 3.8771371932 -1.8741141323 -0.7568747004
C 4.8535030388 -0.9075709791 -0.8741619686
C 4.6192318954 0.4519199600 -0.6712537652
C 5.6813654433 1.3468772340 -0.7956707179
C 6.9600340872 0.8998141467 -1.1161541467
C 7.1768209753 -0.4644356081 -1.3138392739
C 6.1305114797 -1.3711198266 -1.1956902578
H -5.7578807885 2.7880329519 1.0056842616
H -6.4585749923 3.0208854493 2.6151044150
H -6.7529446390 1.5153687967 1.7316692840
H -5.0141754580 1.1778898503 3.5281684798
H -4.0356770017 2.4643085017 2.8381566553
H -3.1607028820 0.2564479025 2.2361783616
H -3.5138769759 -1.6977210354 0.5053200160
H -5.0358755459 -1.4585358603 -0.4131053250
H -4.2468090113 0.5849426313 -1.3524662193
H -1.8306219798 0.8919090610 -1.5065627353
H -2.2949572408 -0.8032637586 -1.8327888368
H 0.1908572004 -1.2246075552 1.8313152313
H 2.5916926674 -1.8417429166 1.5275453837
H 2.2701278056 -1.0102638318 -2.6619109869
H -0.1018076469 -0.3885639006 -2.3816849687
H 3.6269519758 0.8083903512 -0.4191733346
H 5.4988124161 2.4053578314 -0.6364124951
H 7.7794618640 1.6044841141 -1.2108762278
H 8.1687036725 -0.8279884397 -1.5646563707
H 6.2861623434 -2.4342835290 -1.3479686868
