57
CONF72
C -4.2180030386 -1.4137360206 -2.5907611040
C -4.9621971617 -0.5900103651 -1.5419174854
C -3.9965997541 0.3598181342 -0.8401068387
N -2.9094066468 -0.3910408185 -0.1867848156
C -2.1313966927 -1.1152555602 -1.2030034604
C -3.0235066801 -2.1111117301 -1.9448512979
C -2.1363538343 0.4594644082 0.7594872791
C -1.5050654743 1.7054397859 0.1063581584
C -0.5023256745 2.4495193710 0.9922878765
N 0.5004604299 1.5433635345 1.5598725017
C -0.1477394995 0.4938910950 2.3456725484
C -1.0097765927 -0.3592754660 1.4227011301
C 1.5276799333 2.2613396675 2.3088924060
C 2.5088553740 2.9919654377 1.3749176352
C 2.7091405367 2.2453022696 0.0464760022
C 2.8700859169 0.7560228994 0.2428090675
O 3.5324132715 0.3229237989 1.1827002020
C 2.2684262825 -0.1932969209 -0.7410438106
C 2.1959238866 -1.5495094085 -0.3950271918
C 1.6388581774 -2.4801992437 -1.2593049984
C 1.1753508579 -2.0332019322 -2.4877021604
C 1.2462928067 -0.7078229047 -2.8814495856
C 1.7895590408 0.2128702203 -1.9926559334
F 0.6259846920 -2.9327612730 -3.3383353497
C -3.1362180437 0.8709452446 1.8765609514
O -3.2322287358 2.0225524737 2.3017230472
N -3.8565913490 -0.1552718765 2.3834416587
H -4.8861432920 -2.1445318556 -3.0603369487
H -3.8592556112 -0.7440697130 -3.3850841234
H -5.7687964385 -0.0077438597 -2.0021902675
H -5.4176604442 -1.2561219443 -0.7972561192
H -4.5305581357 0.9475449703 -0.0839831990
H -3.6004335009 1.0749705387 -1.5859260184
H -1.3205465509 -1.6683759949 -0.7253586945
H -1.6719944211 -0.4265595457 -1.9387905913
H -2.4194796611 -2.6287454115 -2.6993474118
H -3.3779706227 -2.8671871458 -1.2320741844
H -0.9878432505 1.3681067160 -0.8003245197
H -2.2836678689 2.4111274310 -0.1976842589
H 0.0089050507 3.2047722354 0.3837317313
H -1.0363648230 2.9845222192 1.7955658143
H 0.6316677408 -0.1379657081 2.7877976719
H -0.7460059108 0.9109986191 3.1805340280
H -0.3416404384 -0.7379236008 0.6443162873
H -1.4281357347 -1.2162791896 1.9604834640
H 1.0906536770 2.9792763622 3.0284414096
H 2.0824531044 1.5192244862 2.8911142127
H 2.1559465728 4.0024868079 1.1434814377
H 3.4614149061 3.1048873411 1.9013452971
H 1.8738255313 2.4509375590 -0.6239820535
H 1.5583696117 -3.5293224877 -0.9960759335
H 0.8776117666 -0.4088332761 -3.8564211781
H 1.8464908206 1.2518057343 -2.2960193359
H -4.5882092168 0.0471559984 3.0472514096
H -3.8904679200 -1.0211081888 1.8645677971
H 3.6172076615 2.6143260141 -0.4514645091
H 2.5704303535 -1.8630521322 0.5733611591
