45
CONF7
C -4.4620101768 3.7258595317 0.9010504621
C -4.3832063155 2.2332886979 0.8723721140
C -3.3044785987 1.5348746062 0.5005576984
C -3.2843753505 0.0636914456 0.4587997766
C -2.0867732606 -0.7741661391 0.9623142495
C -2.4681326895 -0.7294350824 -0.5222499232
C -1.5729749921 -0.0312606347 -1.5189992499
C -3.0834577888 -2.0055513984 -1.0544806593
C -0.8563531207 -0.1487844741 1.4593897087
O -0.3955788662 0.9375883966 1.1637837361
O -0.2367285593 -0.9871995909 2.3428431225
C 1.0464914864 -0.5312421487 2.8441764078
C 2.0947824615 -0.6075291548 1.7711318519
C 2.7583423788 0.5128664192 1.2861598472
C 3.6832262340 0.4174973670 0.2541842268
C 3.9984873307 -0.7970007504 -0.3415118106
C 3.3403925438 -1.9184936758 0.1539452713
C 2.4207891362 -1.8281211054 1.1851770491
F 1.8289457765 -2.9519756226 1.6285677442
F 3.6033064057 -3.1279088885 -0.3737572153
C 4.9527480001 -0.9146757118 -1.5067107842
O 4.2614760328 -1.1399909620 -2.7343851262
C 3.5127122782 0.0022078631 -3.1591293492
F 4.2729568639 1.5491153032 -0.1769637030
F 2.5130212485 1.7247620473 1.8108502409
H -4.7006492064 4.0869678537 1.9090377615
H -5.2611430396 4.0903733045 0.2438756910
H -3.5192446882 4.1814431990 0.5844627375
H -5.2806168257 1.6926314248 1.1779083826
H -2.4054182660 2.0669417049 0.2029953642
H -4.2322196471 -0.3941228632 0.7360547131
H -2.3489638221 -1.6928477030 1.4757168484
H -0.7875556239 -0.7166625386 -1.8568869274
H -1.0953833529 0.8595240525 -1.1128476501
H -2.1652677003 0.2587185029 -2.3940370644
H -3.7325035830 -2.4786863303 -0.3122224798
H -2.3017235650 -2.7189958203 -1.3381307269
H -3.6825644163 -1.7857832761 -1.9454726522
H 0.9609531966 0.4855811379 3.2293036124
H 1.2770573040 -1.2195753928 3.6589802466
H 5.6026486802 -1.7807508220 -1.3607797650
H 5.5728025185 -0.0117475611 -1.5705028972
H 3.0737709497 -0.2516424504 -4.1259120179
H 2.7061401346 0.2413955986 -2.4516408895
H 4.1662733040 0.8788213443 -3.2703508626
