26
CONF208
C -2.4906484998 -0.3128118974 0.4719666993
C -1.6303782426 0.9109310526 0.7675862860
C -0.2571089232 0.8874398705 0.0784575220
C 0.5664313959 -0.3740991381 0.3895107875
C 2.0026589923 -0.2884293435 -0.1574383255
C 2.8196878236 -1.5318526266 0.1614512960
O 2.2558127379 -2.7062926362 -0.4274972413
O 2.0261040160 -0.1563974299 -1.5844266702
O 0.5905638551 -0.6034794263 1.8014476599
O -0.4202097307 1.0606728131 -1.3475973729
O -2.3192585477 2.1170324675 0.4111581586
O -2.6851628532 -0.5222707369 -0.9436586671
H -2.0052304127 -1.2149320342 0.8564525822
H -3.4579210130 -0.2013817625 0.9764199124
H -1.4742921655 0.9486105534 1.8510732348
H 0.3044007825 1.7698595136 0.4164876307
H 0.0766092124 -1.2503096328 -0.0524107966
H 2.4980171840 0.5787991755 0.3179922546
H 2.8505803655 -1.6963535242 1.2409667725
H 3.8468219169 -1.3699965019 -0.1990656297
H 1.2518429497 0.3790325751 -1.8345505459
H 1.0574025664 0.1348458962 2.2180728850
H -1.0772821982 0.3917760331 -1.6209326346
H -2.1594314701 2.2661911703 -0.5321052432
H 2.1301167383 -2.5036678416 -1.3649253873
H -3.3805389275 0.0809076269 -1.2367457974
