59
CONF1640
C 1.0296374382 2.5342598846 -0.8826589411
C 2.5383565535 2.7718042236 -0.9535292585
C 3.3601351257 1.6375925790 -0.3329369765
C 3.2571220570 0.3175360722 -1.0998779130
C 4.1797654415 -0.7836145387 -0.5717311818
C 3.8820562610 -1.2098992375 0.8654195585
O 4.8378941278 -2.2561768962 1.1737976382
C 2.4815224518 -1.7118297645 1.0259296548
C 1.5888771157 -1.1837335760 1.8663742520
C 0.1660394738 -1.6146179731 1.9916625060
C -0.2929684650 -1.8865093837 3.4619494608
O -0.8364192906 -3.2076203631 3.6098707301
C -1.3373714831 -0.7978476728 3.7526315207
C -2.0055729924 -0.5600953823 2.4071819843
O -2.8666063030 -1.6928193505 2.1552589537
C -0.8049207116 -0.5240178626 1.4499677165
C -1.1287256679 -0.6989999041 -0.0343450802
C -2.0608985283 0.3478462443 -0.5566839332
C -3.2193206921 0.0992577998 -1.1717778132
C -4.1050783779 1.1453840727 -1.7714157437
C -4.0895853370 1.1076777592 -3.3114314818
C -2.6901332773 1.3320512013 -3.8862399800
C -1.8067924421 0.1138421484 -3.8393770086
O -0.5045992655 0.4357057466 -3.6627839043
O -2.1760972944 -1.0316630208 -4.0077834659
H 0.4728459981 3.3898761635 -1.2790524429
H 0.7127352826 2.3781581680 0.1554896595
H 0.7298399017 1.6523279500 -1.4564855359
H 2.7783937768 3.7083716302 -0.4350515238
H 2.8430776754 2.9088176258 -2.0000118352
H 4.4164713930 1.9362262380 -0.2870415579
H 3.0306096809 1.4940652306 0.7050999090
H 3.5034324875 0.5016027221 -2.1539663977
H 2.2223631393 -0.0462422333 -1.0813001881
H 5.2250755741 -0.4515332935 -0.6192500210
H 4.0920237740 -1.6741100793 -1.2078175449
H 4.0419345733 -0.3625474361 1.5482524552
H 4.6506031053 -2.5540163831 2.0733367551
H 2.1987424152 -2.5505675113 0.3861859762
H 1.8878934801 -0.3374818691 2.4905912481
H 0.0225467197 -2.5402474022 1.4218674029
H 0.5494728823 -1.8444990598 4.1588259691
H -1.6329645326 -3.2306987475 3.0578146417
H -0.8314621298 0.1259886047 4.0557732781
H -2.0341953043 -1.0878227889 4.5443772219
H -2.5931783756 0.3665336220 2.3698879245
H -3.2609733001 -1.5768856156 1.2803419760
H -0.3368641980 0.4618759879 1.5878910788
H -1.5443378768 -1.6988523360 -0.2141142809
H -0.1783219051 -0.6532085360 -0.5880049893
H -1.7467146642 1.3853324160 -0.4243220356
H -3.5261517541 -0.9388891709 -1.3181024922
H -3.7803505528 2.1378558697 -1.4348731506
H -5.1399459260 1.0052446428 -1.4335973482
H -4.7556359409 1.8895169085 -3.6902401053
H -4.4803792299 0.1486203890 -3.6690472791
H -2.7624639657 1.5918393904 -4.9515154669
H -2.1858304115 2.1675856943 -3.3906812642
H 0.0153928778 -0.3857494909 -3.6953908211
