46
CONF60
C -5.0965289631 -0.8453131086 1.9538025792
C -3.9248296274 -1.7883272714 2.0925909877
C -3.0685120646 -2.1076792177 0.9096867523
C -2.4919597789 -1.2575929851 2.0667540314
C -2.1455972310 0.1467560909 1.7933590505
O -2.7524343117 0.9221915490 1.0791072572
O -0.9938949533 0.4758848658 2.4362384235
C -0.4256958688 1.7767545858 2.0898582221
C 0.2800158908 1.6997719575 0.7643246713
C 1.4435536965 0.9358379397 0.6550014963
C 2.0794060676 0.8213552146 -0.5746494395
C 1.5811707553 1.4666196563 -1.7054993601
C 0.4304127472 2.2377567609 -1.5846421918
C -0.2234330519 2.3546199004 -0.3598037538
O 3.1733821046 -0.0235385017 -0.6327792721
C 4.2444026685 0.3145983302 -1.4432676827
C 4.7346847870 1.6173159953 -1.5087928241
C 5.8594565678 1.8760141824 -2.2865502345
C 6.4930165653 0.8481181845 -2.9833357410
C 5.9945768525 -0.4500990583 -2.8981992263
C 4.8653675733 -0.7232617731 -2.1308402062
C -3.3083122140 -1.5098079704 -0.4184672493
C -2.3473223867 -1.3398694585 -1.3236138739
Cl -2.6365133150 -0.6597964742 -2.9015081212
Cl -0.6815527961 -1.7335688148 -1.0123845830
C -4.1602929408 -2.9078811448 3.0849707516
H -5.3360419686 -0.4074449488 2.9285564638
H -4.9038909241 -0.0324320426 1.2542860457
H -5.9732687449 -1.4070260989 1.6123837012
H -2.6297607094 -3.1038273211 0.8838199009
H -1.7839896520 -1.7737654305 2.7058334217
H 0.2740940569 1.9798476204 2.9030002753
H -1.2147900728 2.5315574466 2.0789581892
H 1.8542466178 0.4191746603 1.5174030991
H 2.0820337391 1.3603945151 -2.6617175277
H 0.0319447810 2.7394708455 -2.4608829536
H -1.1311876482 2.9426632552 -0.2768250311
H 4.2437031963 2.4131402403 -0.9585594576
H 6.2464204673 2.8889264187 -2.3395952428
H 7.3703719258 1.0580230678 -3.5860444067
H 6.4811508564 -1.2576784089 -3.4362019757
H 4.4616863209 -1.7276875392 -2.0571124025
H -4.3117814686 -1.1975954628 -0.6921214001
H -4.3573028368 -2.4982258199 4.0813317235
H -3.2957455735 -3.5744978730 3.1484980723
H -5.0304578337 -3.4998765749 2.7806526277
