36
CONF2
C 5.2127881387 1.1524112019 1.6962786881
O 4.8470806092 -0.1761022595 1.2987230910
C 3.6463403862 -0.3408485245 0.6795332653
C 3.3279485328 -1.6510850369 0.3049736316
C 2.1281870788 -1.9152673239 -0.3345824591
C 1.2144695597 -0.8924794142 -0.6189211867
C 1.5374291192 0.4036370347 -0.2204311573
C 2.7410944620 0.6915480743 0.4181688132
C -0.0965324172 -1.2347040434 -1.3074241182
C -1.3191957672 -0.6353248101 -0.6318047944
C -2.0601853729 -1.4779896194 0.2079944687
C -3.1615869548 -1.0179854455 0.9099294035
C -3.5637711599 0.3158348905 0.7818152465
O -4.6589336437 0.6795139461 1.5045814382
C -5.1031886621 2.0384306161 1.3952186605
C -2.8449979861 1.1713451111 -0.0556342651
C -1.7337113444 0.6914513404 -0.7475261577
C -0.0366246053 -1.0300496133 -2.8456499839
Cl 1.2003286061 -2.1485020079 -3.5602922612
Cl -1.6347135697 -1.4420768534 -3.5863463732
Cl 0.4117983874 0.6412801480 -3.3535265623
H 4.5012580888 1.5537092790 2.4272599710
H 6.1977239526 1.0620544657 2.1547668045
H 5.2694017840 1.8199770096 0.8286494284
H 4.0292812241 -2.4491334693 0.5260423058
H 1.8942302816 -2.9376799147 -0.6160734865
H 0.8426405171 1.2171151241 -0.3943825989
H 2.9520924376 1.7125889005 0.7106734145
H -0.2173826463 -2.3209284027 -1.2264372133
H -1.7656031032 -2.5184043345 0.3161082606
H -3.7256693390 -1.6811974890 1.5577568758
H -5.9771850340 2.1160333715 2.0422612083
H -5.3859730925 2.2772457657 0.3633550657
H -4.3279942923 2.7338494111 1.7376376376
H -3.1326602919 2.2076307588 -0.1827047394
H -1.2081831900 1.3841027004 -1.3930669977
