22
CONF1
Cl -0.0000319369 -1.6045436573 -2.6039913728
C -0.0000113846 -0.8031545193 -1.0575461580
C -0.0000043586 0.7966102906 -1.0598914181
Cl 0.0000049584 1.5934690584 -2.6086839173
C -1.1127058730 1.1363981062 -0.0017410739
Cl -1.7594083030 2.7571953991 -0.0040842089
C 0.0000185848 0.7996779581 1.0573561234
Cl 0.0000636930 1.6010564602 2.6037929445
C 0.0000079708 -0.8000734942 1.0596932113
Cl -0.0000042566 -1.5969313200 2.6084824952
C -1.1126945686 -1.1398324130 0.0015797428
Cl -1.7594873390 -2.7605763343 0.0039677116
C -2.1261574699 -0.0017125166 -0.0000972404
Cl -3.1296444323 -0.0038704411 -1.4736480521
Cl -3.1298047767 0.0004822316 1.4733262546
C 1.1126924647 -1.1398374960 0.0015590965
Cl 1.7594380186 -2.7605958791 0.0039163834
C 2.1261627196 -0.0017399380 -0.0001145836
Cl 3.1296999013 -0.0038897664 -1.4735996081
Cl 3.1297124391 0.0004664086 1.4733707615
C 1.1126910760 1.1363850733 -0.0017633482
Cl 1.7593922638 2.7571900722 -0.0041292389
