65
CONF486
C -0.3347578305 3.2006163827 0.0815787847
C -1.5556862215 2.5788747913 0.7564091408
C -1.3686767471 2.2767757292 2.2642672734
C -1.0631303871 3.5224825941 3.0898557114
C -0.2894566975 1.2272422253 2.4312530646
O 0.8474590620 1.4371309989 2.8117439142
O -0.7438534373 0.0152052521 2.0625406820
C 0.2006810308 -1.1047246213 2.0855760124
C 0.2767156971 -1.7076155275 3.4796486884
C -1.0566035252 -2.2859927142 3.9805491334
C -1.8274164027 -2.9291173752 2.8697126351
C -1.5125423058 -2.8629382795 1.5621199369
C -0.2941689295 -2.1152656816 1.0548041724
C -0.5695906650 -1.5022930717 -0.3368590159
C -0.9867690704 -2.6046398629 -1.3367471281
C -2.0757810398 -3.4584641548 -0.7544785454
C -2.3174641524 -3.5456310608 0.5632123735
C 0.1742976443 -3.4869490060 -1.8308673236
C 0.5996331338 -0.6501400562 -0.8404123656
C 0.3182388139 0.0311597216 -2.1797212819
C 1.4058256265 1.0011454925 -2.5995693721
C 1.0548809258 1.8007702800 -3.8362960063
C 2.2529723656 2.6074425592 -4.3012237113
C 3.3885028916 1.6494003667 -4.6359047026
C 3.6183658240 0.5479848125 -3.6295386785
O 4.6542171390 -0.0910700156 -3.5946644161
O 2.6296460027 0.1956167757 -2.7913670475
O 2.6151719933 3.4875448364 -3.2240507960
C -1.9272315130 -1.2586058115 4.7281302133
H 0.5534566944 2.5714282105 0.2057925531
H -0.5119530801 3.3171830489 -0.9922506721
H -0.1046407039 4.1889497046 0.4901168768
H -2.4151225958 3.2530972663 0.6622002002
H -1.8251669666 1.6469765675 0.2463015303
H -2.3034985910 1.8236651986 2.6163149194
H -0.1030889928 3.9611878840 2.8086922478
H -1.8458662677 4.2709000936 2.9329338504
H -1.0234367161 3.2823526400 4.1562510878
H 1.1830222756 -0.7178486733 1.8037825745
H 1.0240858614 -2.5087139840 3.4248963766
H 0.6578727537 -0.9613569375 4.1840518867
H -0.8158860605 -3.0721072677 4.7117717437
H -2.7207509802 -3.4834011763 3.1596443976
H 0.5249410703 -2.8428236175 0.9426272821
H -1.4403992593 -0.8404212117 -0.2280480467
H -1.4081792764 -2.1069074185 -2.2211916936
H -2.6829116272 -4.0310856658 -1.4533937140
H -3.1361965110 -4.1642153490 0.9274089698
H 0.9077412801 -2.9078904750 -2.4007631907
H 0.6892054345 -3.9691517214 -0.9937466356
H -0.2091079137 -4.2771247242 -2.4843949741
H 0.8086149492 0.1405689856 -0.1103500794
H 1.5081393933 -1.2607117328 -0.9071610628
H 0.1768334158 -0.6989671947 -2.9855106818
H -0.6147119330 0.6056130445 -2.1010025687
H 1.6421393444 1.6813599773 -1.7741071646
H 0.7309744547 1.1341143875 -4.6440079927
H 0.2208966971 2.4647889079 -3.5871924520
H 1.9955424750 3.1935427289 -5.1935135160
H 3.1662398898 1.1417069658 -5.5846117973
H 4.3362680860 2.1767502784 -4.7790652544
H 3.3589006806 4.0274272788 -3.5199983668
H -2.2299739470 -0.4422272709 4.0671386898
H -1.3747974654 -0.8360052003 5.5741145416
H -2.8326643952 -1.7365984130 5.1165690700
