44
CONF36
C -3.4785107927 0.7205519354 2.1862474958
N -3.9562136099 0.4053713553 0.8455294257
C -3.3385677534 1.1502945883 -0.2652616151
C -4.0748374967 0.5391928302 -1.4750693111
C -4.3982160964 -0.9139705185 -1.0202322179
C -3.8161647667 -0.9942321955 0.4056970966
C -2.3422400806 -1.4527438966 0.3937936812
C -1.5325380192 -0.5756103350 -0.5489532076
C -1.8152968101 0.9090190543 -0.3490207182
O -0.1134373612 -0.8537889093 -0.2653194092
C 0.7777978192 -0.5678934910 -1.2197613972
O 0.4884669597 -0.1752272912 -2.3377714157
C 2.1983017244 -0.7798697440 -0.7262792603
C 3.1929969127 -0.7447283803 -1.9001584757
O 3.2691131258 0.5247314312 -2.5433654540
C 2.5447715912 0.2163770630 0.3619473441
C 3.3307115389 -0.1843841693 1.4451078177
C 3.6967908518 0.7278774549 2.4318337428
C 3.2766462355 2.0537299096 2.3488556629
C 2.4903262026 2.4607279069 1.2728566330
C 2.1283472972 1.5484244033 0.2850915909
H -2.4040460616 0.5425851866 2.3556025535
H -3.6773546572 1.7773825090 2.3968767668
H -4.0345240032 0.1194197659 2.9144382181
H -3.5291407060 2.2236108349 -0.1526693850
H -4.9947770605 1.0952550044 -1.6723381375
H -3.4631453798 0.5733239579 -2.3814748591
H -3.9622372832 -1.6705668028 -1.6789533092
H -5.4783481278 -1.0777650767 -0.9920158864
H -4.3950089915 -1.6551869936 1.0606905040
H -2.2780005892 -2.5002147868 0.0788708221
H -1.9255480355 -1.3877733399 1.4053018837
H -1.7131333141 -0.8620820697 -1.5888301405
H -1.3318826546 1.2461792008 0.5754977805
H -1.3901547356 1.4898351037 -1.1740509955
H 4.1926277068 -0.9624732807 -1.5126660883
H 2.9200035545 -1.5323930575 -2.6168127898
H 3.6563108124 -1.2188593309 1.5154267177
H 4.3056826153 0.4003233648 3.2690314684
H 3.5571759342 2.7647126464 3.1196945100
H 2.1562632757 3.4913758318 1.2015734548
H 1.5132221909 1.8772982543 -0.5480059963
H 2.2421515865 -1.7877179593 -0.2942967828
H 2.3879168060 0.6902238026 -2.9093556388
