21
CONF54
C 0.7794355881 -0.9091841078 -0.8189915102
C -0.1569684655 0.0259763652 -0.0531460983
C 0.3948659725 1.4653986504 -0.0702885380
O 1.4233834395 1.6951504044 0.9015550631
C -1.5229374848 0.0736655734 -0.7585232974
O -2.1299783722 -1.2129494652 -0.9354339469
C -0.3159394800 -0.4832637766 1.3888495219
O -0.9813623626 0.4547186635 2.2437074756
O 2.1171301377 -0.7376913492 -0.3143774250
H 0.7448746304 -0.6589693901 -1.8906000561
H 0.4614159767 -1.9544626182 -0.6944815788
H 0.7542961280 1.7021960031 -1.0830176201
H -0.4075430776 2.1712098516 0.1716403094
H 2.1089129948 1.0352492906 0.7183351155
H -2.2129247619 0.6532996341 -0.1365030021
H -1.4221032247 0.5867918515 -1.7264573464
H -1.7243981041 -1.6395925468 -1.6996925626
H -0.9331075026 -1.3877835526 1.3772898527
H 0.6654035303 -0.7475513491 1.8020109062
H -0.3510996269 1.1704342424 2.4033271528
H 2.7086443611 -1.3026420784 -0.8252024152
