38
CONF36
O -0.7878491051 -1.7165039101 2.0563349970
P 0.1374206352 -1.1061176114 1.0822433538
O 1.0501734052 -2.1075218138 0.2240113984
C 0.4441961052 -3.1397790029 -0.5222124713
C 0.2671222796 -2.9484139386 -1.8846997086
C -0.2779088554 -3.9870341844 -2.6358031608
C -0.6357225151 -5.1859718570 -2.0225817855
C -0.4456675970 -5.3520847668 -0.6522894241
C 0.1010268575 -4.3244259324 0.1127721895
O 1.2257452855 -0.1816306449 1.8063595875
C 1.9209553544 0.8753557617 1.1947355920
C 2.5972380941 0.7076382350 -0.0057906291
C 3.2768819368 1.8000047672 -0.5417548200
C 3.2846182686 3.0249315341 0.1206369594
C 2.6104313048 3.1617766584 1.3326589791
C 1.9202410348 2.0836468147 1.8778368633
O -0.5139654284 -0.2232442367 -0.0968891590
C -1.4229765275 0.8166732433 0.1790140457
C -1.0417555324 2.1031943847 -0.1767813692
C -1.9408641450 3.1459450473 0.0293715060
C -3.1948061564 2.8948663186 0.5827946965
C -3.5560492295 1.5934665138 0.9236423093
C -2.6705309512 0.5372577706 0.7198222712
H 0.5542901240 -2.0070508037 -2.3404860085
H -0.4218911201 -3.8550361436 -3.7032665679
H -1.0601555552 -5.9914403483 -2.6127378258
H -0.7199896768 -6.2857492123 -0.1720115861
H 0.2612113356 -4.4341411339 1.1795915144
H 2.5921297808 -0.2492479298 -0.5147020333
H 3.8054979833 1.6847879987 -1.4825218615
H 3.8172464782 3.8692757231 -0.3041221640
H 2.6138849258 4.1122947869 1.8563303060
H 1.3770584115 2.1702021817 2.8126383593
H -0.0604523544 2.2762180277 -0.6057181843
H -1.6563069668 4.1568730540 -0.2441506776
H -3.8912037487 3.7113218703 0.7428996416
H -4.5347882816 1.3916624654 1.3468626818
H -2.9390984169 -0.4820471912 0.9715789236
