71
CONF29
C 7.1788447156 0.1083406460 1.9881604520
C 7.1470437858 -1.2571898484 1.3651944260
C 5.9518028247 -1.8348373126 0.9053438485
C 5.9357221452 -3.0821368778 0.2560830166
C 7.1429616510 -3.7624343627 0.0951471085
C 8.3338738582 -3.2219820646 0.5711482873
C 8.3318390066 -1.9805216405 1.1959370291
C 4.6461693189 -3.6709050481 -0.2430201343
N 4.7231902207 -1.1384557404 1.0481525733
C 4.1471577233 -0.7890645941 2.2251163197
O 4.6311291982 -1.0119042382 3.3355168874
C 2.8375536928 -0.0187695774 2.0691157876
N 2.1405069748 -0.3171773330 0.8241571466
C 1.2198582506 0.7540422301 0.4271196385
C 0.5556790524 0.4143749554 -0.8979955587
N -0.1798157023 -0.8510605598 -0.8014527035
C 0.7432484304 -1.9158915653 -0.3997345660
C 1.3977852351 -1.5804457809 0.9290451468
C -0.8465722477 -1.2016126877 -2.0630076358
C -1.9826493994 -0.2471326939 -2.4274035687
C -3.1098590838 -0.2257996791 -1.3891151516
C -3.8613091968 1.1177559496 -1.3642445101
C -5.1497402365 1.0863619037 -0.5603097306
C -6.1516469520 2.0197358186 -0.8503787614
C -7.3368978084 2.0637624062 -0.1238082932
C -7.5027405602 1.1534217528 0.9068760332
C -6.5434197724 0.2120553676 1.2305581507
C -5.3640698544 0.1865362979 0.4866683219
F -8.6581763854 1.1842853121 1.6258935651
C -2.9403157328 2.2183840824 -0.8578592568
C -2.5048838040 2.2209867385 0.4714040643
C -1.6099663769 3.1788507250 0.9352238333
C -1.1561818285 4.1366862595 0.0430753704
C -1.5661484830 4.1812349138 -1.2766471422
C -2.4663153125 3.2113372390 -1.7172707111
F -0.2737252133 5.0729297785 0.4875577427
H 6.5051991414 0.7960976272 1.4669661034
H 6.8511443583 0.0719240576 3.0320843178
H 8.1917162148 0.5163702850 1.9568207008
H 7.1427877038 -4.7288877944 -0.4009463750
H 9.2647412884 -1.5469361547 1.5454758672
H 4.8201772308 -4.6531781106 -0.6870775484
H 4.1767742675 -3.0337299477 -1.0021707207
H 3.9227824316 -3.7805922206 0.5720897578
H 2.2295372410 -0.2146035377 2.9685069078
H 3.1065049365 1.0463379582 2.0861520076
H 0.4385119957 0.9169952519 1.1941089748
H 1.7851096436 1.6869861794 0.3189977252
H 1.3264900302 0.3680353917 -1.6941915594
H -0.1377716135 1.2242994691 -1.1469212916
H 0.1822386624 -2.8523593023 -0.2985881242
H 1.5335779754 -2.0776016200 -1.1617688420
H 2.0914784439 -2.3822871486 1.2074438682
H 0.6236392516 -1.5138953230 1.7173964947
H -1.2517587483 -2.2158855124 -1.9464660818
H -0.1182861151 -1.2384357723 -2.8972567419
H -1.5819153736 0.7627218060 -2.5677758885
H -2.3810889812 -0.5470447567 -3.4037025293
H -3.8209791935 -1.0352307366 -1.5948904494
H -2.6836841206 -0.4162000503 -0.3980892054
H -4.1327064341 1.3737246952 -2.3965683473
H -6.0014617970 2.7271165416 -1.6618163766
H -8.1173523368 2.7823919348 -0.3502095679
H -6.7153472968 -0.4855956956 2.0432945750
H -4.6105246530 -0.5526853715 0.7362248958
H -2.8651477751 1.4617479115 1.1597492699
H -1.2647200014 3.1842921400 1.9635533385
H -1.1895916052 4.9511043375 -1.9415502386
H -2.7948375233 3.2249155454 -2.7526562051
H 9.2656881994 -3.7645314374 0.4440821276
H 4.1257534713 -1.0007795184 0.2366922051
