40
CONF10
N -1.5014498134 4.2094637749 1.0347100511
C -1.6652433032 2.8960799681 0.7777062898
N -1.0780780882 2.4025521952 -0.3106728480
C -1.1613835434 1.0806997444 -0.6152291119
O -0.6338589077 0.5929234860 -1.6188476770
N -1.8851909002 0.2359064226 0.2576644548
C -2.4955119586 0.7595943302 1.3542502068
C -2.4519762998 2.0839555841 1.6394526058
C -1.7105161800 -1.2287681536 0.2231358088
O -0.4960827015 -1.5147469361 0.9038172663
C 0.2014501012 -2.5640408165 0.2191861870
C 1.6730650644 -2.4925484009 0.5534051520
O 2.2933460073 -1.3103657676 0.0161252210
P 2.6463726908 -0.0554994774 0.9683346893
O 4.1734788311 0.2436641769 0.6698923738
O 2.2656243539 -0.2346671663 2.3779243373
O 1.8407995743 1.1662048772 0.2411651655
P 2.3285930606 2.0537440639 -1.0505034331
O 1.4053099431 3.3332737242 -0.9199532183
O 1.8571406256 1.2266313742 -2.3197188921
O 3.7866380116 2.3155894739 -1.0338724389
C -0.1773156642 -2.3674729682 -1.2473561542
O -0.0231159244 -3.5981873069 -1.9537440190
C -1.6586467852 -1.9415473763 -1.1423544243
O -2.4864252667 -3.0929489444 -1.0099890187
H -0.8343836090 4.7329954260 0.4898688422
H -1.7784752631 4.5851132341 1.9245043647
H -3.0119044992 0.0503393894 1.9923213937
H -2.9510363595 2.4817506269 2.5126651407
H -2.5655638312 -1.6392838878 0.7765873985
H -0.1677639143 -3.5495956027 0.5507618674
H 1.8064461394 -2.5282447522 1.6395118145
H 2.1753547667 -3.3495201915 0.0922719248
H 4.3174356750 1.0027817951 0.0466999715
H 0.4378261898 3.0740638776 -0.8124406774
H 0.8936678910 1.0015437952 -2.2442562790
H 0.4243666221 -1.5669242871 -1.6829119131
H 0.2600817266 -3.4004623059 -2.8524173852
H -1.9872611659 -1.3072179120 -1.9704563560
H -2.0658131050 -3.7868283831 -1.5405334865
