41
CONF8
C 2.8017622266 3.5639705747 0.7185643446
C 2.8212484323 2.0817279859 0.5075988840
C 2.8611355813 1.5383064618 -0.7721882592
C 2.8597279447 0.1721844177 -0.9950747484
C 2.8059884900 -0.7413330397 0.0539067691
C 2.7779370030 -0.2050223050 1.3356755884
C 2.7867851779 1.1663438503 1.5526251784
F 2.7399056458 1.6074690628 2.8258840476
F 2.7364223836 -1.0173666595 2.4063161560
C 2.7190258212 -2.2156936796 -0.2148750797
O 1.5237164979 -2.5193770795 -0.9875261781
C 0.3442766160 -2.3432864797 -0.3347731321
O 0.2784604477 -2.0866684435 0.8522596085
C -0.7765541340 -2.4488931754 -1.2818422218
C -1.9534437772 -1.4545249704 -1.1041338074
C -2.1750354204 -2.9193862623 -0.8948583772
C -2.9151603608 -3.6521678726 -1.9943150412
C -2.4485067537 -3.4644385283 0.4872900293
C -1.9407109821 -0.4919774712 0.0063045996
C -1.4715708768 0.7518023019 -0.0894595754
C -1.5027370901 1.7496086174 1.0295598243
F -2.0733237098 1.2351099309 2.1365535785
F -2.1985741960 2.8651904194 0.6965284285
F -0.2563754554 2.1629162970 1.3743592996
Cl -0.7183235284 1.3698375935 -1.5399233762
F 2.8923319304 -0.2771354103 -2.2637713304
F 2.8907769042 2.3676126434 -1.8344571693
H 2.6554135494 3.8056708536 1.7708935364
H 3.7434946386 4.0103261169 0.3833781000
H 1.9947941400 4.0167867050 0.1351823957
H 2.7190406939 -2.7817705120 0.7172866942
H 3.5388571956 -2.5485366213 -0.8530832230
H -2.2734070145 -1.0368183248 -2.0563393752
H -2.6251135093 -4.7078409466 -2.0083833697
H -3.9942544512 -3.5952990010 -1.8156896433
H -2.7045029603 -3.2203299418 -2.9767018783
H -3.5181592960 -3.3735481740 0.7054051878
H -2.1861680905 -4.5268711385 0.5199692750
H -1.8847666225 -2.9529333452 1.2666587288
H -2.3547349702 -0.7873385867 0.9651283624
H -0.4800894699 -2.6239157487 -2.3101295263
