82
CONF511
C -3.8117961159 2.6804834440 -1.3672906013
C -2.6028524871 2.4612237343 -0.4980027190
C -1.6285668756 3.3765078294 -0.4322736869
C -2.5460288211 1.2161441474 0.3590634188
C -3.4831643698 1.3251282057 1.5858290280
C -3.6405444571 -0.1194823147 2.0554827285
C -3.7737737532 -0.9367070170 0.7552316992
C -2.9734690430 -0.1182576653 -0.3164266948
C -1.9648658288 -1.0042136428 -1.0900858165
C -1.2094822159 -0.2550006760 -2.1844912385
C 0.0946544709 0.3668434503 -1.7103597522
C 1.0751977485 -0.6911890334 -1.1758407661
C 2.5657565297 -0.1496538085 -0.9109037268
C 2.8005323777 1.1349511334 -1.7414064895
C 4.1289233012 1.8323138729 -1.4630347349
C 4.1983800836 2.2806567814 -0.0136372705
C 4.0334542749 1.0903905429 0.9543849409
C 2.8010952679 0.1731574867 0.6118970778
C 1.4651882802 0.6306754605 1.2089666871
C 0.4577457938 -0.5248176653 1.2708193687
C 0.4450856676 -1.4596386129 0.0261316122
C -1.0261104564 -1.9985445111 -0.3143481335
C -1.7426728933 -2.4718175141 0.9807299738
C -3.2647402815 -2.3798754846 0.8972144410
C -0.9315589516 -3.2362905543 -1.2440911491
C 1.3060443404 -2.6954369259 0.3794076150
C 5.3377866675 0.2633817222 0.9160679824
C 3.9477426856 1.6198512538 2.3972779169
O 3.1731562591 3.2859658855 0.1462444330
C 3.5466960512 -1.2220048691 -1.4357125432
C -5.2428054390 -0.9656300806 0.3020530431
O -6.1235255489 -1.6621109656 1.1954316583
H -4.7404002146 2.4466687786 -0.8343823636
H -3.7869747287 2.0324851733 -2.2514156871
H -3.8592104593 3.7162253597 -1.7127680096
H -0.7495193062 3.2194680058 0.1887369185
H -1.6824861070 4.3055815613 -0.9938920255
H -1.5266247586 1.1391035544 0.7405034666
H -3.0672390350 1.9903077408 2.3492321323
H -4.4544768471 1.7369798593 1.2865706831
H -2.7436978361 -0.4247811422 2.6076042446
H -4.5002835748 -0.2715672526 2.7166315492
H -3.6964841954 0.1660762245 -1.0930455342
H -2.6545608394 -1.6771938077 -1.6169604642
H -0.9821131836 -0.9446681755 -3.0085185197
H -1.8583248305 0.5229089606 -2.6075001502
H -0.1173854486 1.1316802446 -0.9603828460
H 0.5331566837 0.8851155409 -2.5661620806
H 1.1818004118 -1.4190778823 -1.9919319230
H 2.0150532859 1.8633725892 -1.5292032707
H 2.7285018225 0.8887915243 -2.8086110900
H 4.9855484547 1.1896600896 -1.6854843594
H 4.2237199310 2.7122845207 -2.1101961849
H 5.1783882062 2.7452662710 0.1856255623
H 3.0489120524 -0.7679142361 1.1174988497
H 1.5915896166 1.0006848329 2.2283786307
H 1.0713685975 1.4710198918 0.6278686474
H -0.5313941057 -0.1092715090 1.4652006100
H 0.6928683029 -1.1309023047 2.1554901906
H -1.4606706733 -3.5092630072 1.1948512063
H -1.4166292035 -1.8899566985 1.8455456530
H -3.6297941313 -2.9803484872 0.0508062663
H -3.6967203043 -2.8250941502 1.8032870216
H -0.4497696724 -3.0045357584 -2.1991064243
H -1.9399236323 -3.6027167155 -1.4632524866
H -0.3866182992 -4.0606332390 -0.7815658602
H 0.7683583355 -3.3413854833 1.0814543242
H 2.2353654336 -2.4073751361 0.8690427505
H 1.5660999133 -3.2858252065 -0.5025623445
H 5.2772978452 -0.5534489814 1.6432028288
H 6.1899446375 0.8948012835 1.1923825709
H 5.5519333637 -0.1751583253 -0.0574360774
H 4.8780099485 2.1423683793 2.6504079307
H 3.8293707046 0.7885847783 3.1017001529
H 3.1167928613 2.3096819817 2.5632868326
H 3.2816632273 3.6816724975 1.0184460358
H 4.5519427794 -0.8253908939 -1.5865613053
H 3.2066910066 -1.5921914168 -2.4093331154
H 3.6315203893 -2.0777435159 -0.7622157833
H -5.6353923759 0.0558177706 0.2377036870
H -5.2930441129 -1.4096303924 -0.7054517355
H -5.8876439751 -2.5975369933 1.1721533930
