29
CONF1
C -1.6109798177 -2.3167576916 1.4199967926
C -1.5834636383 -1.8486298178 -0.0271319297
N -1.1065909509 -0.4473882442 -0.1355858643
C -1.9994127627 0.5524836876 -0.1599462380
C -1.6566024320 1.8855111653 -0.2013761738
C -2.7453811130 2.8901507411 -0.2367245675
O -2.3381120002 4.1621887887 -0.2755380042
O -3.9325656615 2.6025122160 -0.2290850390
C -0.2734363077 2.2748924539 -0.2108536951
O 0.0967447602 3.4810006570 -0.2461557574
C 0.6815489267 1.1803172437 -0.1749251410
C 2.0670329390 1.4066384549 -0.1766769608
C 2.9295565438 0.3377872033 -0.1375200108
C 2.4041019944 -0.9706928690 -0.0982629017
C 3.3220358330 -2.1514925034 -0.0602331479
N 1.0923336575 -1.2059089482 -0.0959816263
C 0.2569914448 -0.1617731519 -0.1333030310
H -0.6102915031 -2.2949325615 1.8587801040
H -2.2752890450 -1.6861567124 2.0182018340
H -1.9832248468 -3.3443799244 1.4562531265
H -0.9249067095 -2.4706395631 -0.6339324645
H -2.5832589083 -1.8681662082 -0.4662476556
H -3.0450122739 0.2624482202 -0.1486464137
H -1.3198253207 4.1477507804 -0.2728466316
H 2.4304010060 2.4279918941 -0.2087387574
H 4.0042953514 0.4842016344 -0.1370587887
H 3.9900402551 -2.0835624118 0.8050501371
H 3.9572417228 -2.1633612311 -0.9527453952
H 2.7560281579 -3.0820333922 -0.0086631996
