39
CONF4
N 1.5991630361 -0.2602138150 2.1203107737
C 2.3718485741 -0.8255119001 1.1511681824
N 3.0006107258 -1.9683446264 1.4604047688
C 3.7959404034 -2.4995736375 0.5155480557
N 4.3946686965 -3.6930257949 0.8210032336
N 4.0228420752 -2.0010428702 -0.7134650104
C 3.3776355985 -0.8548240981 -0.9845992724
C 2.5375531456 -0.1962228845 -0.1089322574
C 1.8497369235 1.0935099696 -0.4561743763
C 0.3331493774 1.0009525653 -0.4698755908
C -0.2876194522 -0.0885349899 -1.0807036712
C -1.6817013704 -0.1708845420 -1.1010265590
O -2.3854995862 -1.1897626187 -1.6644597438
C -1.6344861499 -2.2536629091 -2.2644625964
C -0.4276728806 2.0070314725 0.1253740416
C -1.8251488101 1.9260769622 0.1063115487
O -2.6580688899 2.8472470271 0.6629538596
C -2.0539218943 3.9713245037 1.3160123228
C -2.4581394932 0.8397803598 -0.5126587091
O -3.8299959255 0.7749710436 -0.5630252270
C -4.3999186496 0.0871798531 0.5694299993
H 1.3730495381 -0.8404710163 2.9142254330
H 0.8889977702 0.4003489952 1.8407743961
H 4.4532496286 -3.9346076714 1.7975395882
H 5.1780285190 -3.9626276851 0.2473189501
H 3.5495865155 -0.4304079946 -1.9746631713
H 2.1989906465 1.4153935398 -1.4454851638
H 2.1450269287 1.8823316133 0.2479988543
H 0.3238433701 -0.8654565157 -1.5234644917
H -1.0223850090 -1.8832510255 -3.0948623065
H -0.9942329851 -2.7490298151 -1.5251548217
H -2.3753717964 -2.9594146267 -2.6407768017
H 0.0740318602 2.8426793589 0.5989551856
H -2.8825446171 4.5727733606 1.6906795929
H -1.4585538619 4.5629028102 0.6109163939
H -1.4242564501 3.6483081027 2.1532062673
H -4.0365496981 -0.9461972685 0.6139187184
H -5.4817774125 0.0916059400 0.4230805448
H -4.1501099989 0.6086509388 1.5009198612
