28
CONF56
C -2.4623932887 -1.6031497587 -1.0105954225
O -1.5811674115 -1.1584745928 0.0651042874
P -1.5332673849 0.3869240585 0.4286578448
O -1.4041142315 1.3539120611 -0.6878355688
O -2.7881517828 0.5501118990 1.3909534429
C -3.1681479473 1.8888692580 1.8325489545
O -0.2913658734 0.4241876180 1.4837880730
C 0.9612553283 0.8512510756 1.0624981951
C 1.5555105762 1.8735465042 1.6790784504
Cl 0.7692248831 2.8106725094 2.9086782658
C 1.6073594848 0.0330290580 0.0218631401
C 1.5733869150 -1.3574417348 0.1790354955
C 2.1308109042 -2.2057247108 -0.7626675039
C 2.7455491526 -1.6703758681 -1.8980650685
C 2.7873145557 -0.2940916405 -2.0808019377
C 2.2190418559 0.5451744238 -1.1308910228
Cl 2.2592378065 2.2615518806 -1.4623983187
Cl 3.4573300427 -2.6975772620 -3.1062171109
Cl 2.0514044812 -3.9256743642 -0.5053990002
H -3.5061001941 -1.4378174233 -0.7309455765
H -2.2680992711 -2.6686370456 -1.1257678187
H -2.2217111423 -1.0718609594 -1.9342830407
H -3.3786379101 2.5218213416 0.9676173994
H -4.0670653128 1.7560038068 2.4329900418
H -2.3687661197 2.3210881328 2.4400953303
H 2.5710536626 2.1716411049 1.4530134287
H 1.1006060842 -1.7772441820 1.0591186288
H 3.2499023277 0.1182846035 -2.9691736998
