36
CONF262
C 3.8286265582 2.9514566858 -2.3283143591
C 2.3624328747 2.5495947161 -2.1186031314
C 2.2088248306 1.0797564257 -1.8758742564
C 1.6893997009 0.5314601425 -0.7754399951
C 1.5498879563 -0.9441545602 -0.5435704952
C 0.0945491822 -1.4349747292 -0.5676366609
C -0.9209000986 -0.7482256016 0.3609255282
C -2.2767952526 -1.1228154857 -0.2661913612
C -2.0220368240 -0.9962220503 -1.7708618928
C -0.5603411150 -1.3598237822 -1.9414008383
O 0.0032917982 -1.5611177865 -3.0009855284
C -0.7713907471 -1.1570790856 1.8194100193
C -1.7002766520 -0.4060266194 2.7390720517
O -2.1138093795 0.7212685543 2.5501969778
O -1.9981444484 -1.1300135257 3.8347558032
C -2.8324619766 -0.4667532563 4.8186868333
H 3.9145895214 4.0207010631 -2.5455227191
H 4.2669087808 2.3988656567 -3.1662467808
H 4.4216336170 2.7337573799 -1.4341301301
H 1.7906034566 2.8291638628 -3.0144656675
H 1.9342278369 3.1088831039 -1.2784741743
H 2.5745901131 0.4224655244 -2.6683518081
H 1.3361363313 1.1906349202 0.0190295274
H 1.9866037499 -1.2110441201 0.4274052875
H 2.1073572819 -1.4937275738 -1.3099710500
H 0.0895533927 -2.5131355308 -0.3260272009
H -0.7955294858 0.3384210095 0.2801217587
H -3.0914047276 -0.4857247149 0.0864122518
H -2.5200188871 -2.1622451316 -0.0112170758
H -2.1189099492 0.0510346272 -2.0935203007
H -2.6657143802 -1.5989643433 -2.4169400304
H -0.9231312467 -2.2347208213 1.9419665507
H 0.2463700083 -0.9393134368 2.1740693603
H -2.3348962258 0.4327056492 5.1890461152
H -2.9631333039 -1.1911916824 5.6214762779
H -3.7966919836 -0.2028960815 4.3780947174
