47
CONF20
C -1.2178662242 -0.0598912444 -3.9132816206
C -1.9513682055 -0.4698462859 -2.6591027641
C -3.4163688007 -0.7778235070 -2.8764729631
C -1.2413719354 -1.2822366695 -1.6039707400
C 0.1627610904 -1.6848863737 -1.7404439774
C 0.5893434068 -2.9470628186 -1.7404515017
Br 2.4376817707 -3.3817935673 -1.8707856950
Br -0.5698226018 -4.4538446486 -1.6171048984
C -1.6264378616 0.1799624253 -1.3128185875
C -0.6130522295 1.2348069058 -1.1910934238
O 0.4566793340 1.3233419646 -1.7554070907
O -1.0518754036 2.1937101498 -0.3096734752
C -0.1183130812 3.2592843170 -0.0234038425
C 0.1512477649 4.0477689727 -1.2296158156
N 0.3307271082 4.7143991379 -2.1549502484
C 1.1401909937 2.7676306006 0.6734538326
C 2.3849574463 3.3413570682 0.4323145993
C 3.4970671273 2.8761532746 1.1314968535
C 3.3801684673 1.8355371081 2.0435925503
C 2.1261728007 1.2710596619 2.2688437620
O 2.0593221614 0.2742444707 3.2173748166
C 1.0559316239 -0.6814620432 3.1229361876
C 0.3631570726 -0.9890115389 4.2877699629
C -0.5965293985 -1.9983354132 4.2598961772
C -0.8624252851 -2.6837944278 3.0772362129
C -0.1564786781 -2.3619397827 1.9187282330
C 0.8111284828 -1.3624952907 1.9323396249
C 0.9974785262 1.7435387964 1.6067151922
H -1.2987619554 -0.8674966419 -4.6486606855
H -0.1623263229 0.1469015290 -3.7415267157
H -1.6812912284 0.8351955381 -4.3413070406
H -3.5201356171 -1.5865696521 -3.6077377334
H -3.9335329737 0.1052193396 -3.2668622372
H -3.9057126660 -1.0855714694 -1.9483894403
H -1.8709335055 -1.9914718663 -1.0738629835
H 0.9177071609 -0.9116400920 -1.8469160518
H -2.4659336440 0.2994877838 -0.6374383880
H -0.6830475281 3.9084018727 0.6569590043
H 2.4966958229 4.1344596145 -0.2992202888
H 4.4708776339 3.3173277802 0.9458674934
H 4.2421797612 1.4516818497 2.5783913763
H 0.5820843881 -0.4417780986 5.1986490438
H -1.1394928438 -2.2433144361 5.1672857164
H -1.6124234130 -3.4675327031 3.0568276069
H -0.3509506086 -2.9007985641 0.9973702941
H 1.3679294473 -1.1146124575 1.0338166187
H 0.0249623079 1.3065387334 1.8026321608
