20
CONF1
C -2.0638126791 0.1681869302 -1.1009579659
C -0.9239353065 -0.5476743927 -1.0920159609
C -0.5927117722 -0.9599169198 0.3397229946
C -1.7837329514 -0.3982633352 1.1088661764
C -2.5995006673 0.2530098853 0.2602457742
Cl -4.0561641681 1.0515370872 0.6487069014
Cl -2.0705362914 -0.6453319668 2.7695684170
C 0.8034002461 -0.3797981881 0.7722719305
C 0.8301567909 1.1369486147 0.6015421312
C 1.8049834545 1.4743167759 -0.2632701853
C 2.5178610988 0.2683292013 -0.6925428824
C 1.9745648650 -0.8122181403 -0.1035100278
Cl 2.5516412506 -2.4094935057 -0.2335287246
Cl 3.8461324357 0.2930038189 -1.7628572621
Cl 2.2335297916 3.0484807572 -0.7620746549
Cl -0.1542137909 2.2247259593 1.4736843259
Cl 1.2189769398 -0.8075322453 2.4811120459
Cl -0.6559595131 -2.7628936967 0.4850615116
Cl -0.0357080922 -1.0306422357 -2.4670383996
Cl -2.8449715455 0.8352254006 -2.4629861396
