47
CONF41
C -6.9171374283 -0.1261436447 -1.2870666046
O -6.2409846390 -0.1986675426 -0.0109707200
P -5.3130058462 1.0217056672 0.4625374050
S -4.1263277939 1.8064698097 -0.8434652874
O -6.3989042529 1.9822616979 1.1506585018
C -5.9995034138 3.2929102881 1.6104667084
O -4.6282031533 0.3735223805 1.7835207321
C -3.4970399896 -0.4396987249 1.6683601918
C -3.6513140232 -1.7911937362 1.3983386675
C -2.5205215870 -2.5961079516 1.3129178362
C -1.2522669720 -2.0507337230 1.5216591114
C -1.1191272202 -0.6908426735 1.8151374853
C -2.2432067784 0.1203802142 1.8735101399
S 0.1536060335 -3.1527058066 1.4757612383
C 1.4019808945 -2.1454665275 0.6893615146
C 1.1298192407 -1.4122387928 -0.4692817958
C 2.1332582192 -0.6712059038 -1.0737291746
C 3.4189206962 -0.6914122361 -0.5421659085
C 3.7116657903 -1.4331657454 0.5955836727
C 2.6925007576 -2.1469745109 1.2183252756
O 4.3872177350 0.0235529096 -1.2340102095
P 5.5723293520 0.8911867175 -0.4992330590
S 5.0501991016 1.9424687935 1.0182076608
O 6.1578795342 1.6276623483 -1.8012716162
C 5.4231991580 2.7315411325 -2.3759612687
O 6.7322163086 -0.1700112801 -0.1940223678
C 7.1788089912 -1.0819904780 -1.2294260804
H -7.3922053035 -1.0977214793 -1.4263569737
H -6.1966650078 0.0652702740 -2.0874334805
H -7.6764677827 0.6616216622 -1.2679051887
H -6.9136448450 3.7792234673 1.9523256996
H -5.2925640691 3.2028726757 2.4413351788
H -5.5473195747 3.8608058215 0.7920624312
H -4.6436373956 -2.1967774011 1.2375212123
H -2.6235217524 -3.6497561156 1.0752828239
H -0.1363029966 -0.2650278322 1.9854736156
H -2.1577006875 1.1812277133 2.0791960134
H 0.1287476660 -1.4092451328 -0.8869530721
H 1.9356273477 -0.0839981350 -1.9635901426
H 4.7131325888 -1.4332237032 1.0114335631
H 2.9027550762 -2.7021426009 2.1262230134
H 6.0541005396 3.1289481960 -3.1715232682
H 4.4741631293 2.3783122304 -2.7914264785
H 5.2406060896 3.4987167351 -1.6176216869
H 7.6338477526 -0.5263517396 -2.0532154306
H 7.9199995708 -1.7253263529 -0.7545707698
H 6.3409898230 -1.6825307524 -1.5969531121
