55
CONF208
C 6.0378342807 -3.0070394697 -2.1651264348
O 5.0062087788 -2.0697047313 -2.5011150649
C 3.9018585575 -2.0379240786 -1.7055265937
C 3.7014002565 -2.8621897080 -0.5958476542
C 2.5258780158 -2.7368579527 0.1416094988
C 1.5452286809 -1.8049982886 -0.1951710822
C 1.7591424068 -0.9951527827 -1.3183304784
C 2.9197831286 -1.1057120575 -2.0643927815
C 0.3210399680 -1.6884361843 0.6739047685
S -1.1937476308 -1.7247633750 -0.4088380501
C -2.4298148071 -0.9180850512 0.5917502046
C -3.5647351651 -1.6435332957 0.9654439402
C -4.6101302192 -1.0285441735 1.6435344158
C -4.5109854831 0.3176042108 1.9862975583
C -3.3795439314 1.0451171268 1.6400796126
C -2.3380051681 0.4472028616 0.9255222191
N -1.2226928966 1.2325895830 0.5332805568
C -1.4251901951 2.5599649927 -0.0861876760
C -1.0872551973 2.6047509156 -1.5983620433
N -2.1911949600 2.4203655021 -2.5386708498
C -3.1704577676 3.5027266677 -2.4886708180
C -2.8438200907 1.1199977699 -2.4161011190
C 0.0692204097 0.8726737436 0.7967132730
O 1.0242513440 1.5759441346 0.4793057295
C 0.2685175155 -0.4383131683 1.5663642321
O 1.5247387955 -0.4006695668 2.2615662120
C 1.5966082710 0.4869412371 3.2874570627
C 2.9523900351 0.4609697576 3.9188275844
O 0.6635621968 1.1868936508 3.6188192890
H 6.8205813908 -2.8642048408 -2.9104463014
H 5.6648043949 -4.0366671212 -2.2150363335
H 6.4394611771 -2.8063053896 -1.1650268601
H 4.4378741845 -3.5982464413 -0.2986891506
H 2.3774179765 -3.3791309712 1.0052498117
H 1.0071728474 -0.2726741527 -1.6168383950
H 3.0838382414 -0.4775698613 -2.9340283700
H 0.2822696582 -2.5541470262 1.3426772725
H -3.6225495772 -2.6956850963 0.7071713321
H -5.4900105842 -1.6022494006 1.9149135244
H -5.3092615263 0.8027445639 2.5383540139
H -3.2969180412 2.0871145881 1.9305658091
H -0.7939167182 3.2750290913 0.4485517769
H -2.4663849837 2.8448247158 0.0724944212
H -0.6408846574 3.5847618541 -1.8061651420
H -0.3214415385 1.8498160880 -1.8092015396
H -3.8811509431 3.3854553551 -3.3143708045
H -2.6650948399 4.4677894100 -2.6025251619
H -3.7584854770 3.5281004832 -1.5511160162
H -3.4481326789 1.0172875503 -1.4943291988
H -3.5153593331 0.9659008496 -3.2685060475
H -2.0891162579 0.3265783699 -2.4152400703
H -0.5339264505 -0.5573932934 2.3006751284
H 3.1722812707 -0.5480118064 4.2797534224
H 3.7083246706 0.7138557502 3.1695370789
H 2.9885168826 1.1712097690 4.7434399021
