37
CONF22
C 4.7257940562 -2.0089442932 -0.0328940157
C 3.8539398478 -2.9918342028 0.7279542779
C 3.3381641552 -4.1279014051 -0.1318265905
O 2.6603123169 -2.2961151698 1.2172117334
C 2.8070207374 -1.5814993098 2.3553774626
O 3.8270543224 -1.5292189236 3.0028304360
C 1.5488698985 -0.8463431350 2.6763560919
C 1.1669249326 -0.5237514465 3.9878633933
C 0.0121714230 0.2100152556 4.2319971467
C -0.7459421072 0.6417056644 3.1596622343
C -0.4021087179 0.3725056216 1.8358738373
C 0.7423454462 -0.3952487924 1.6285828562
C -1.2098506313 0.8270923928 0.7031347595
N -1.5542223035 -0.0355851030 -0.2627184909
N -2.2267862575 0.6724392263 -1.1729118236
C -2.3413343460 1.9852427042 -0.8243114726
C -1.6799248630 2.1207004304 0.3882888200
Br -1.3197130596 3.6932692343 1.3447844302
C -3.0348568160 2.9658447341 -1.7055403923
F -2.3445886103 3.1793701448 -2.8584568887
F -3.2020580177 4.1501183669 -1.1069735465
F -4.2622675839 2.5134438815 -2.0774398090
C -2.7973206918 -0.0095188785 -2.3279675461
F -1.8824357220 1.3070076633 3.4222711218
Cl 2.0582409344 -1.0746290927 5.3779087572
H 5.6129655260 -2.5225573972 -0.4158438994
H 4.1751491512 -1.5918505205 -0.8821183825
H 5.0558749298 -1.1956659917 0.6174601052
H 4.3909236589 -3.3737544197 1.6023705129
H 2.6930986255 -4.7934048086 0.4471115183
H 4.1806247883 -4.7089304252 -0.5179098086
H 2.7680056147 -3.7391724062 -0.9810870766
H -0.3096205751 0.4285577876 5.2424115643
H 1.0254430001 -0.6351365710 0.6114297828
H -2.6475812267 0.5902833466 -3.2281665087
H -3.8667379590 -0.1860905271 -2.1815425821
H -2.2761991804 -0.9618201560 -2.4249638034
