41
CONF68
C 7.1058423882 2.0953358398 1.9436568285
C 6.0943882479 1.7297229121 0.8773859241
O 4.7576719814 2.1662186542 1.2503133103
C 4.0733822001 1.3408487973 2.0858285866
O 4.4747880082 0.2485127339 2.4647606727
N 2.8958969511 1.9072632334 2.4541572476
C 1.8886972688 1.1385965659 3.1686856057
C 1.0879236606 0.2169106554 2.2674985097
O 0.3625068488 1.0513941399 1.3511199982
C -0.3997014212 0.4424119096 0.3972907914
C -0.5599161886 -0.9416528616 0.2812352829
C -1.3667106417 -1.4569103072 -0.7320472154
C -2.0073234620 -0.5976851084 -1.6119500262
C -1.8540061583 0.7801361964 -1.5015118270
C -1.0469097268 1.2997354622 -0.4997430943
O -2.7659214328 -1.1102356505 -2.6628657905
C -4.0299665060 -1.5837531301 -2.3819939469
C -4.6736759750 -2.2520091935 -3.4248907986
C -5.9593853568 -2.7420297309 -3.2322774828
C -6.6072231910 -2.5733901103 -2.0080404053
C -5.9531174332 -1.9042273410 -0.9778605156
C -4.6635930705 -1.4038778605 -1.1531261852
H 8.1074578863 1.8095515594 1.6068070001
H 6.8946722246 1.5707103592 2.8792488344
H 7.0995113238 3.1732712136 2.1296200818
H 6.0772547886 0.6533655139 0.6869886427
H 6.2933409870 2.2575911210 -0.0580252268
H 2.6039773413 2.7387159661 1.9633393618
H 1.2158209449 1.8413946621 3.6694506727
H 2.3802042039 0.5329442412 3.9354697569
H 1.7561207450 -0.4567337771 1.7147721833
H 0.3902386182 -0.3807671710 2.8699461069
H -0.0666514637 -1.6253130678 0.9609212197
H -1.4988384888 -2.5295099863 -0.8341200264
H -2.3632890551 1.4357676822 -2.2003708871
H -0.9088520041 2.3711508035 -0.3977056663
H -4.1581027544 -2.3774619558 -4.3714836319
H -6.4569567358 -3.2619138922 -4.0452669235
H -7.6103705942 -2.9594423778 -1.8610522792
H -6.4466199646 -1.7628677943 -0.0210652210
H -4.1625640046 -0.8817688055 -0.3459409535
