34
CONF108
C -4.2119649584 -1.7215145147 -1.7846418441
C -2.7150948258 -1.8194522583 -1.6105439822
O -2.0750364485 -0.6193821334 -2.1675142245
P -1.6050682144 0.6371255768 -1.3259287304
S -1.5342138252 2.3227864656 -2.2372583271
O -2.4797898141 0.4982757148 0.0121526862
C -2.5304603565 1.5742699793 0.9974730867
C -1.2748985142 1.6288178039 1.8409607673
O -0.0396990553 0.2807403387 -0.8346129560
N 0.0603855985 -0.9563749931 -0.1996204671
C 1.2338165807 -1.1572401599 0.3142178590
C 1.2885228279 -2.4326498057 0.9768053126
N 1.3647754701 -3.4551827920 1.5126274191
C 2.4457257366 -0.3198494599 0.3588502386
C 3.3795493542 -0.5758486773 1.3770508455
C 4.5371756644 0.1803390981 1.4810191611
C 4.7941398912 1.1909468636 0.5593425977
C 3.8856019942 1.4378745828 -0.4655652152
C 2.7154667567 0.6981560981 -0.5712686447
H -4.4724796768 -1.5761446762 -2.8362148844
H -4.6789348334 -2.6484247418 -1.4356729107
H -4.6159016735 -0.8899910039 -1.2016205145
H -2.4235064053 -1.9375323296 -0.5658149809
H -2.2886224849 -2.6420300667 -2.1901685303
H -3.4079620514 1.3320520583 1.6018677953
H -2.7077449856 2.5172577716 0.4688043490
H -0.4081637721 1.9344417311 1.2486858369
H -1.0691762984 0.6545153434 2.2934830004
H -1.4143097884 2.3607550670 2.6429327837
H 3.1910444798 -1.3707568280 2.0913479003
H 5.2421439683 -0.0254294896 2.2794033088
H 5.7023551158 1.7798166734 0.6357875844
H 4.0862944509 2.2163781617 -1.1940335266
H 2.0260298758 0.9032553059 -1.3764212086
