45
CONF607
O -0.5730132965 -0.9660777294 -2.8228033824
C -1.9167131984 -1.4223648205 -2.6587682741
C -2.5122873957 -1.0577893191 -1.3163708264
O -1.7012070526 -1.6718006476 -0.2704638148
C -1.5794698576 -0.8086117225 0.8446512663
C -1.7747532628 -1.6615022931 2.0964016425
O -1.5028268954 -0.9481418067 3.2926082512
O -0.2937790353 -0.1617232565 0.8993024491
C 0.8477801405 -0.9161750786 0.5531246406
O 1.3310099889 -0.5263092417 -0.7234489254
C 1.6954749411 0.8785698542 -0.8069584384
C 2.0490470685 1.1739143818 -2.2542308196
O 0.9091751936 1.4370518276 -3.0713412238
C 2.8474284651 1.1455963055 0.1679892912
O 3.2638697282 2.5117037513 0.1401671194
C 2.4182273323 0.7476056755 1.5800970102
O 3.4997726365 0.8303767317 2.5099256636
C 1.9354212792 -0.6924437472 1.6014214004
O 1.3953738741 -1.0617159393 2.8716810372
C -2.5774148915 0.3418331321 0.5897935039
O -2.2886719121 1.5556715795 1.2491848539
C -2.5614898282 0.4202649887 -0.9384797682
O -3.7209180019 1.0888185108 -1.4114272029
H -0.0693558332 -1.1919421220 -2.0211397067
H -2.5184066479 -0.9617218613 -3.4498947461
H -1.9640661749 -2.5134066654 -2.7843431247
H -3.5308868081 -1.4704644068 -1.2654003112
H -1.1361802130 -2.5543094328 2.0037141190
H -2.8170435227 -1.9938478586 2.1313638726
H -0.5471984137 -0.7640310365 3.2844411660
H 0.6112926567 -1.9813560049 0.4683645645
H 0.8296019343 1.4961420422 -0.5220455618
H 2.6485205956 0.3397014094 -2.6507103200
H 2.6625021738 2.0787238313 -2.2789273840
H 0.3290240658 0.6531717467 -3.0559864434
H 3.7254854045 0.5569703006 -0.1273100838
H 2.5057311226 3.0611917514 0.3872474398
H 1.5938556342 1.4095001070 1.8953724809
H 3.7771880025 1.7552482696 2.5509070883
H 2.7797343548 -1.3501003561 1.3451622982
H 2.0665934145 -0.8690045120 3.5406816887
H -3.5771149833 0.0312447826 0.9171295594
H -1.3502901550 1.7438667169 1.1005408398
H -1.6438167847 0.9322046696 -1.2652414451
H -3.5652048371 1.3554675612 -2.3259812428
