29
CONF5
C -0.4636270059 1.6593309662 -1.3630378060
C -0.4304250409 0.5780884216 -0.3015016279
C -0.6936634577 1.0889583443 1.1334397560
C -0.1401900658 -0.0442422126 2.0461604309
C 0.3328192358 -1.0987488079 1.0269929755
C 0.9047737841 -0.2235689745 -0.1242544885
C 2.0947835595 0.6481532353 0.2882810883
C 1.3442509455 -1.0290878317 -1.3531404303
C -0.9361965072 -1.7024612570 0.3898124103
C -1.4298606416 -0.5818415906 -0.5575788451
O -2.8044075958 -0.2735480509 -0.2740205322
H 0.2848835885 2.4336536919 -1.1618604188
H -1.4439681000 2.1512591926 -1.3875340856
H -0.2719301763 1.2458805069 -2.3598615598
H -1.7602294116 1.2698138371 1.2883697872
H -0.1750452758 2.0378318455 1.3024892974
H 0.6853804745 0.3098907428 2.6708568797
H -0.9037783416 -0.4533157203 2.7152316099
H 1.0252322437 -1.8413474236 1.4358317806
H 2.4267550774 1.2589226907 -0.5587655573
H 1.8738598448 1.3211504119 1.1182019653
H 2.9365185707 0.0115709231 0.5849346465
H 1.5934324793 -0.3547432285 -2.1801374937
H 2.2483070149 -1.6000484618 -1.1119835752
H 0.5952264240 -1.7366532381 -1.7126193428
H -1.6991627931 -1.9250005974 1.1427163138
H -0.7312920272 -2.6273726512 -0.1565925418
H -1.3603568973 -0.8908307469 -1.6091346474
H -3.1020898837 0.3683054752 -0.9312960789
