44
CONF40
C -2.6516909751 -4.1064709185 0.7315320200
C -2.0632173579 -2.9135314006 0.0179908056
C -2.4971772043 -2.7451230594 -1.4501570475
O -2.7634481456 -1.3401545132 -1.5933597839
C -2.3927363962 -0.7129489409 -0.3622754332
O -2.5573202098 -1.7058162478 0.6233141280
C -3.4110840565 0.3991178156 -0.0795740829
N -3.2710656646 1.4906512648 -1.0210962669
C -3.6559558767 1.5529987478 -2.3173823773
N -3.2265492880 2.6745826655 -2.8708963374
C -2.5544206312 3.2700554983 -1.8458268410
N -2.5463382180 2.5923302450 -0.7057973974
C -0.9583569950 -0.1896348562 -0.4524033112
C -0.3480865492 -0.0769470811 -1.7045997331
C 0.9350927202 0.4223778803 -1.8617250770
C 1.6396981335 0.8360981261 -0.7376471273
C 1.0635433246 0.7631051536 0.5266066992
C -0.2242676748 0.2578624306 0.6511026063
Cl -0.8900872083 0.2380940678 2.2762979384
O 2.8848294775 1.3820148370 -0.9498676770
C 3.8440298690 1.2914717264 0.0417806062
C 4.1343244675 0.0828444829 0.6695909462
C 5.1595300299 0.0259604745 1.6049966144
C 5.8868304264 1.1766372910 1.8914477324
C 5.6068609982 2.3817544759 1.2589820107
C 4.5738170740 2.4380245833 0.3300421370
Cl 7.1823170217 1.1020427333 3.0701564891
H -3.7441182863 -4.0749524903 0.6848446796
H -2.3430093733 -4.1156680882 1.7797126862
H -2.3049870738 -5.0326355243 0.2626106065
H -0.9646369042 -2.9191714873 0.0877598046
H -1.7136578625 -3.0570799270 -2.1515104963
H -3.4223879430 -3.2923920913 -1.6665681545
H -4.4114704970 -0.0355742750 -0.1570739604
H -3.2559542403 0.7954002256 0.9247409536
H -4.2326243721 0.7714558830 -2.7927642564
H -2.0630469892 4.2297625445 -1.9356264544
H -0.9112703371 -0.3913029940 -2.5752788446
H 1.3930781771 0.5050081518 -2.8404256146
H 1.5986555722 1.1102044049 1.4017795028
H 3.5621493972 -0.8060849839 0.4274895200
H 5.3992765454 -0.9070188605 2.1013846148
H 6.1846017597 3.2679530598 1.4934783964
H 4.3303303408 3.3646991662 -0.1773076096
