37
CONF18
C 4.5442572346 -0.8415296290 -0.6341619918
C 3.7123372268 0.4380139259 -0.7249283005
C 2.4149112460 0.3936153824 0.0882756183
C 1.4410300743 -0.6695170620 -0.4127341235
C 0.0597998089 -0.6430816828 0.3021306457
C -0.8112253227 -1.7864311291 -0.3135836292
N -2.1797064116 -1.7684507951 0.1599464395
C -3.2606903026 -1.2142441494 -0.4271122384
N -4.3142005012 -1.3043709746 0.3745658389
C -3.8019028306 -1.9276129623 1.4734048030
N -2.5113968936 -2.2260911340 1.3931029423
C 0.3049767211 -0.9472911162 1.7138582926
N 0.5559386726 -1.2138320500 2.8100998700
C -0.6714489556 0.6906183105 0.1536760636
C -0.7896614270 1.2689059059 -1.1130109090
C -1.5099564659 2.4426506463 -1.2979240604
C -2.1203929123 3.0360966309 -0.1993888897
Cl -3.0352306344 4.5214625457 -0.4249629978
C -2.0252384273 2.4832968924 1.0693132923
C -1.2984745338 1.3075084154 1.2353543187
H 4.7605260011 -1.0905591978 0.4111110967
H 5.4985100949 -0.7236048704 -1.1567809334
H 4.0272809268 -1.6960356283 -1.0819650574
H 4.3119034320 1.2836910529 -0.3680131064
H 3.4703966729 0.6497077807 -1.7748173613
H 1.9290669837 1.3756957956 0.0408076154
H 2.6541688960 0.2067932993 1.1434982764
H 1.8598249899 -1.6728275915 -0.2821603157
H 1.2620902094 -0.5380002314 -1.4854722392
H -0.8319588589 -1.6456711023 -1.3971174674
H -0.3654066434 -2.7587632493 -0.0891172518
H -3.2305824100 -0.7797482741 -1.4180778789
H -4.3896564976 -2.1750018525 2.3484853390
H -0.3256515770 0.8085675714 -1.9788733887
H -1.5945159096 2.8853131713 -2.2837595176
H -2.5081406952 2.9549585029 1.9174088387
H -1.2315817637 0.8757695565 2.2289216631
