78
CONF354
C -0.8255574884 -0.6949118871 -0.3606390629
C 0.0895727284 -1.8584046297 -0.7117346948
O -0.7422552241 -3.0409127176 -0.4374281790
C -1.7239682093 -2.7326767480 0.4495729014
O -2.4815125084 -3.5774431987 0.8681889987
C -1.6214014628 -1.2688718022 0.8010660535
C -2.8866963121 -0.4556206498 1.0847847855
C -3.9782681049 -0.6344798359 0.0355529568
C -4.0287358490 0.1803971499 -1.0974925738
C -5.0196251196 -0.0290860622 -2.0537055397
O -5.1734960091 0.6953685431 -3.2041564759
C -4.2293093712 1.7457698055 -3.4532515289
C -5.9747523234 -1.0379471954 -1.8878200566
O -6.9594326233 -1.2468449804 -2.8124433939
C -5.9313393879 -1.8412278788 -0.7424189122
O -6.9107596658 -2.7878891125 -0.6580449192
C -6.8985075481 -3.6381869529 0.4960634536
C -4.9349372347 -1.6356623760 0.2140153480
C -2.4764763677 1.0057377876 1.2188438357
C -3.3936095630 1.8631469923 1.8626569012
C -3.0771627432 3.1952398726 1.9481214333
C -1.8996218686 3.7057894132 1.4075531049
O -1.8624676719 5.0670189892 1.5787730780
C -2.9422837505 5.3599038941 2.4905091325
O -3.8217759836 4.2137468945 2.4832802642
C -0.9955235938 2.8992813198 0.7665137427
C -1.2897634279 1.5195907968 0.6767463102
C -0.2326044051 0.6437475272 0.0291618096
O 0.8413060375 0.4465428122 0.9968357936
C 2.0837393883 0.9171816273 0.5959893379
O 2.6115363887 0.0080758035 -0.3848666377
C 3.8894157182 0.4403923028 -0.8454747096
C 4.3803021718 -0.4935715537 -1.9362213820
O 5.7159841913 -0.0906850627 -2.3020225055
C 6.6267486765 -0.0491512528 -1.2178010981
O 6.1734273988 0.7862210963 -0.1535587326
C 4.8766794216 0.3838045641 0.3145395136
C 4.4253350100 1.3236816962 1.4124751574
O 5.2221394849 1.2197182253 2.5938581476
C 2.9962923925 0.9627667732 1.8213325398
O 2.4647203182 1.9356977166 2.7145907577
C 6.9855156377 -1.4313533115 -0.7316608365
C 6.9337362712 -2.6161250906 -1.4160046955
C 7.4567067138 -3.7121620664 -0.6760995360
C 7.9137851393 -3.3494045890 0.5608783912
S 7.7042635981 -1.6514295530 0.8402157194
H -1.5088479493 -0.5232706169 -1.2023802118
H 0.9689515093 -1.9101704227 -0.0657737836
H 0.3834292561 -1.9077914868 -1.7606831044
H -0.9892283240 -1.2397984390 1.7043834391
H -3.3002519101 -0.7841244630 2.0449697686
H -3.3152904948 0.9862362711 -1.2171754811
H -4.5181824584 2.1826787856 -4.4092165158
H -3.2111598278 1.3453959187 -3.5196415786
H -4.2780871154 2.5076569420 -2.6669304838
H -6.8352341955 -0.6008244397 -3.5240503723
H -7.7421811639 -4.3172811113 0.3700725239
H -5.9666153300 -4.2132294328 0.5513973567
H -7.0279065586 -3.0554659219 1.4155845917
H -4.8897803241 -2.2553940038 1.0999017045
H -4.3229361692 1.4746177883 2.2669208022
H -3.4875890586 6.2372625792 2.1383490823
H -2.5355034240 5.4947309016 3.5016191786
H -0.0854705908 3.3030989044 0.3351746269
H 0.1822021489 1.1533247577 -0.8485479954
H 2.0116611206 1.9232980721 0.1435776588
H 3.8340905754 1.4708153613 -1.2334250074
H 3.7803623263 -0.4128086479 -2.8453524625
H 4.3626333730 -1.5307906416 -1.5750186526
H 7.5125927057 0.4600472068 -1.6123600037
H 4.9137047580 -0.6464828729 0.7025460355
H 4.4356183215 2.3568986681 1.0303240388
H 6.0759684605 1.6341911575 2.4157144230
H 2.9991391521 -0.0379951251 2.2830241073
H 3.1039032888 2.0373473557 3.4331975991
H 6.5306774846 -2.6952833077 -2.4187714401
H 7.4896217566 -4.7303539787 -1.0459645845
H 8.3503459731 -3.9738368829 1.3292606318
