39
CONF99
C 4.9430396109 -1.4673752074 -0.6258292529
C 4.7012156003 -0.1671974552 0.1417641658
C 3.2206141640 0.1907742605 0.2983481622
C 2.5370777698 0.4939443684 -1.0351844060
N 1.1369790682 0.8821478322 -0.8759033781
C 0.1769285918 -0.0666472152 -0.7546723889
O 0.3850041352 -1.2708921779 -0.8607289750
N -1.1225912635 0.4377081531 -0.4997313234
C -1.6146576219 1.7468114741 -0.6525746882
C -1.1530534676 2.8615222426 -1.3420729422
C -1.9527429850 4.0046697669 -1.3065071862
C -3.1742293666 4.0201727878 -0.6273379114
C -3.6503229400 2.8874095435 0.0245320751
C -2.8641047533 1.7403399224 0.0038397576
N -3.1520510043 0.4902143651 0.5284339357
C -2.1314560648 -0.2524854492 0.2227014225
N -1.9380198406 -1.5776018413 0.5120876529
C -2.7089564172 -2.3338487673 1.3837919178
O -3.6333736940 -1.9594099753 2.0561218740
O -2.2209451888 -3.6053097135 1.3543717754
C -2.9177804186 -4.5129373817 2.2287307838
H 6.0044544575 -1.7315554357 -0.6210789266
H 4.6316016853 -1.3917397138 -1.6719694742
H 4.3875800333 -2.2958515867 -0.1736620125
H 5.2267043543 0.6603322423 -0.3537523594
H 5.1419759835 -0.2521532504 1.1416117674
H 2.6868040711 -0.6356927236 0.7836258021
H 3.1232586714 1.0667480172 0.9526651673
H 2.5536438410 -0.3822962983 -1.6874106218
H 3.0546049305 1.3104937835 -1.5535660368
H 0.9364770910 1.8023984580 -0.5128390096
H -0.2387423006 2.8560827796 -1.9242498301
H -1.6199255528 4.8935545172 -1.8315161453
H -3.7680811272 4.9281280998 -0.6244290267
H -4.6096465882 2.8774504822 0.5295280655
H -1.1394121075 -2.0147669877 0.0598041769
H -2.8445547635 -4.1771562226 3.2665567505
H -2.4214891272 -5.4745860769 2.0992672904
H -3.9718256774 -4.5814011250 1.9472337598
