63
CONF340
C 7.3477769274 -0.0641477451 -4.3116098409
C 7.7157749208 -0.3788051606 -2.8648817424
N 6.5445595513 -0.3316002808 -1.9822690203
C 6.1498518033 0.9528442446 -1.4024887753
C 4.6476308353 1.0344206280 -1.2891711004
N 4.1468786575 -0.0945197230 -0.4788233390
C 4.7149829941 -1.3310485574 -0.6598849137
O 4.3807808551 -2.3515632088 -0.0683741449
C 5.8538771767 -1.4494646925 -1.7072073509
O 6.0903414257 -2.5612577972 -2.1790072764
C 2.9762960759 0.1678807694 0.3091683487
O 2.4228985655 1.2605136030 0.2292958641
N 2.5623607231 -0.8214025236 1.1233849098
C 1.3222317633 -0.6576998111 1.8559693063
C 1.0331961182 -1.8850598218 2.6945295545
C 1.0108992632 -3.1541637948 2.1084767035
C 0.7185473254 -4.2744979294 2.8801475602
C 0.4359420796 -4.1358584336 4.2380178457
C 0.4485750605 -2.8717016694 4.8222364337
C 0.7474357569 -1.7495679469 4.0534580230
C 0.1419363000 -0.4426049383 0.8783915868
O 0.1106502020 -0.9539464247 -0.2343157327
N -0.8704352187 0.2981117602 1.3969462656
C -2.0821207354 0.5398493109 0.6813288844
C -2.4147340702 1.9802077786 0.1771763381
N -3.6525056654 1.9236425755 0.9781010517
C -3.3950290911 0.6584670720 1.4850047148
O -3.9989567751 -0.0411596703 2.2647916918
C -4.8706511103 2.4800612181 0.4165805356
C -4.4166229464 3.2612481033 -0.8736230193
S -2.9777919715 2.2567167699 -1.5405927560
C -3.9439418780 4.6565601847 -0.4620002031
C -5.4958398955 3.3578037036 -1.9442900806
C -5.8678175599 1.3764568082 0.0774959630
O -7.1265688486 1.8055231898 0.2603002610
O -5.5733632542 0.2763442061 -0.3315482575
H 6.8970935420 0.9294236095 -4.3956615492
H 6.6401932423 -0.8035485235 -4.6971446217
H 8.2476591400 -0.0859199920 -4.9332065413
H 8.1546109961 -1.3764882596 -2.7864722588
H 8.4403692574 0.3469717448 -2.4808650629
H 6.4913418601 1.7502032013 -2.0678999980
H 6.6282769629 1.0939459913 -0.4235470748
H 4.3630919392 1.9585925315 -0.7875860219
H 4.1791944200 1.0145970450 -2.2807639264
H 3.0172574675 -1.7264415477 1.0581978503
H 1.3970829677 0.2177084005 2.5115374696
H 1.2149615434 -3.2676402796 1.0474111909
H 0.7070047753 -5.2570981720 2.4190655847
H 0.2070236193 -5.0107725574 4.8382380549
H 0.2314066425 -2.7571866424 5.8795961636
H 0.7624582515 -0.7643338310 4.5107253677
H -2.1954631572 -0.1983840268 -0.1184004471
H -1.7085342045 2.7472713066 0.5080413322
H -5.3498183396 3.1951045310 1.0935507519
H -3.1776819706 4.6176664149 0.3169297243
H -4.7965370412 5.2265167882 -0.0759093310
H -3.5363015256 5.1814293980 -1.3292664059
H -5.8182530751 2.3748426706 -2.2986679365
H -5.1131173320 3.9252628878 -2.7968394113
H -6.3622119590 3.8930265968 -1.5430748112
H -0.7454904423 0.7428102106 2.2958713204
H -7.7379838360 1.1048892727 -0.0280190689
