35
CONF3
C 0.7598917449 -2.0008359006 -3.3108530835
C 1.6935828463 -1.7680549254 -2.1486568220
O 0.9754331143 -0.9339326681 -1.1884337758
C 1.6253931246 -0.6488706184 -0.0630659451
O 2.7536950811 -1.0102912815 0.1992019970
C 0.7843900183 0.1973617651 0.9202931581
C 0.3726185020 1.5238792627 0.2835485042
C -0.7462631384 2.2101455884 0.7524133861
C -1.0689670450 3.4706257569 0.2627739045
C -0.2566955669 4.0447399888 -0.7067010832
C 0.8718098070 3.3883168540 -1.1833224800
C 1.1797315745 2.1314158463 -0.6783191584
Cl -0.6600131271 5.6291445492 -1.3404228497
C -0.4114885405 -0.6578309607 1.3506702912
C -1.4973269598 -0.8598585508 0.4940347885
C -2.5667309599 -1.6577486234 0.8766839443
C -2.5444757093 -2.2603081050 2.1304228700
C -1.4787229525 -2.0740250412 2.9989358497
C -0.4133813423 -1.2712002444 2.6009331612
Cl -3.8934838706 -3.2674844028 2.6216307761
O 1.6109411876 0.4898521863 2.0345040385
H 0.4774550167 -1.0548125357 -3.7803473397
H 1.2581106659 -2.6232865072 -4.0595359028
H -0.1474414865 -2.5149576919 -2.9828828884
H 1.9792847737 -2.6975153930 -1.6466835467
H 2.6072281367 -1.2414807982 -2.4426930663
H -1.3756945030 1.7584246436 1.5117165015
H -1.9390960371 4.0019767842 0.6302489266
H 1.4980243065 3.8553037919 -1.9343891891
H 2.0719274004 1.6279552718 -1.0403557356
H -1.5132883854 -0.3824613339 -0.4795889240
H -3.4108282216 -1.8092686708 0.2140544000
H -1.4804215331 -2.5463486343 3.9743169615
H 0.4207615106 -1.1062237512 3.2716721658
H 2.4640406789 0.0576538467 1.8581966735
