39
CONF27
C 3.2613004720 1.5630470541 -1.8863718415
C 3.5766383830 0.5372484115 -0.7985564184
C 3.0313844571 0.9115038574 0.5820587446
C 1.5227350384 1.0831229215 0.6281974927
C 0.9451528699 1.2257918427 2.0547674836
O 0.3448272352 -0.0478341501 2.3140683373
C -0.1260753567 -0.4804284912 1.0560166240
C -0.2201334927 -2.0108868870 1.0893470806
N -0.7491793691 -2.5268123556 -0.1558333189
C -0.1375461613 -2.6454943740 -1.3576096879
N -1.0054767158 -3.0265974548 -2.2793765654
C -2.1668579434 -3.1155156183 -1.5716401305
N -2.0674002848 -2.8175423945 -0.2830647408
O 0.8983812287 -0.1274093691 0.1365130258
C -1.4494727078 0.1792507319 0.6559669236
C -2.5745003865 0.2284221461 1.4857397681
Cl -2.5656753115 -0.4486256994 3.1028203617
C -3.7704275859 0.8017448908 1.0674236360
C -3.8477837096 1.3238383806 -0.2159176220
Cl -5.3520722274 2.0407800770 -0.7488628160
C -2.7625578782 1.2804592672 -1.0795794042
C -1.5811881966 0.7079759361 -0.6297278502
H 2.1872864849 1.6177058023 -2.0904125410
H 3.6003727966 2.5644777455 -1.5981354998
H 3.7570549064 1.3004023174 -2.8251737964
H 4.6627984897 0.4138161681 -0.7164188855
H 3.1741834793 -0.4403408882 -1.0862111378
H 3.4845206375 1.8560466303 0.9144850735
H 3.3094863992 0.1424058579 1.3141288556
H 1.2024419933 1.9252606637 0.0002707964
H 0.1899393597 2.0214390049 2.1084280741
H 1.7131899699 1.3928282705 2.8137123118
H 0.7863398041 -2.4025057397 1.2609167869
H -0.8830732070 -2.3249164559 1.8966467642
H 0.9159179426 -2.4456642505 -1.4983024844
H -3.1096332209 -3.4126390333 -2.0114746102
H -4.6257350165 0.8279941596 1.7303728070
H -2.8412121399 1.6785971316 -2.0837286862
H -0.7279508242 0.6490547025 -1.2954830211
