53
CONF225
C 2.1089708167 1.2838009545 -0.3247476925
C 2.9178715245 0.3094350755 -1.1655671613
N 3.1910232001 0.8792680150 -2.4906029903
C 1.9177288185 1.1951998795 -3.1468570929
C 1.1071208166 2.1640450813 -2.3005879172
N 0.8323422579 1.5884513793 -0.9799004147
C 0.0071642527 2.4937319415 -0.1686888300
C -0.7019015317 1.7679615864 0.9732492184
C -1.7785603268 0.8236112096 0.4334942968
N -2.2812957601 -0.0827049700 1.4734751254
C -3.6525833993 -0.4203659659 1.4871493335
C -4.4745584739 -0.2686113816 0.3638578606
C -5.8328791224 -0.5683343502 0.4369384156
C -6.3890324830 -1.0630420352 1.6123486700
C -5.5726995567 -1.2671598832 2.7225301588
C -4.2232135674 -0.9342948303 2.6633938440
S -3.1930244981 -1.0937084979 4.1077580565
C -1.6984386224 -1.5936022932 3.2842447616
C -1.3870643600 -1.0024180344 2.0475379143
C -0.1802623337 -1.3476363862 1.4242380932
C 0.6853720769 -2.2248926813 2.0643750168
C 0.3895273149 -2.8125134384 3.2858980640
C -0.8316188243 -2.5025702423 3.8797816867
Cl 2.2165321919 -2.6100641379 1.2809332031
C 4.0128195009 -0.0154906284 -3.3146386382
C 5.4713593144 0.0462282682 -2.8801708530
O 5.9368012353 1.4015957240 -2.8721518857
H 2.7011111302 2.2071955393 -0.1632405315
H 1.9244525759 0.8315898472 0.6556918652
H 2.3633358308 -0.6450278258 -1.2547349176
H 3.8622019213 0.0986435478 -0.6526792745
H 1.3207553515 0.2779750295 -3.3191137856
H 2.1245116903 1.6512005494 -4.1217447690
H 0.1550439718 2.3687173264 -2.8037823067
H 1.6584206044 3.1223709865 -2.2164939205
H -0.7493741992 2.9395087796 -0.8279890646
H 0.6092479220 3.3288743506 0.2356886381
H -1.1740286863 2.5065482706 1.6305676102
H 0.0240353525 1.2259354835 1.5864558344
H -1.4068177328 0.2742714148 -0.4433986606
H -2.6217174892 1.4310298553 0.0981847909
H -4.0578878467 0.0804120251 -0.5734073476
H -6.4525439782 -0.4265875660 -0.4427644505
H -7.4458594815 -1.3016828231 1.6666998628
H -5.9841256165 -1.6678383406 3.6438875564
H 0.0871782111 -0.9323555656 0.4603606047
H 1.0819077973 -3.4954446171 3.7630132231
H -1.0966326794 -2.9540139562 4.8305548223
H 3.6558402464 -1.0621327614 -3.2817536750
H 3.9435495179 0.3285435748 -4.3537929008
H 5.6076362897 -0.4102578904 -1.8883554848
H 6.0884614828 -0.5127490094 -3.5910711972
H 5.1837984797 1.9145418129 -2.5340730562
