40
CONF2
C -3.7310583666 0.9190368962 4.0382050863
N -3.6235105628 0.8489588418 2.5776025680
C -3.7720590645 -0.5255444466 2.0899042799
C -3.6868489864 -0.5876561558 0.5683586018
C -2.3531218392 -0.1011515927 0.0066785732
O -1.3552519490 -1.0091558297 0.5291918293
C -0.0431113271 -0.6853409059 0.4116129927
C 0.8541585183 -1.6271543593 0.9335078706
C 2.2166390516 -1.3958109180 0.8784565464
C 2.7027081698 -0.2177755436 0.3042856267
C 1.8122641611 0.7150854358 -0.2207047939
C 0.4410076105 0.4910088379 -0.1714986587
C 4.1734882384 0.0072608602 0.1950811802
F 4.8646579250 -0.5829294059 1.2026217795
F 4.5017975151 1.3235237752 0.2064531518
F 4.6917843547 -0.4999788882 -0.9643599068
C -2.3612843238 -0.0916646926 -1.5040318660
C -2.0565578983 -1.2417600759 -2.2337172584
C -2.1199942811 -1.2274787651 -3.6247419659
C -2.4946998793 -0.0668122410 -4.2985053504
C -2.8016919025 1.0831324011 -3.5738048333
C -2.7310831074 1.0705368912 -2.1834518130
H -2.8829511269 0.3933467014 4.4918901848
H -4.6575648609 0.4658500753 4.4335649029
H -3.6926646937 1.9637081520 4.3621772001
H -4.7284554623 -0.9815604239 2.4074582689
H -2.9709556633 -1.1313974387 2.5320010667
H -3.8572036087 -1.6154730071 0.2264430756
H -4.4765740663 0.0315259397 0.1244302125
H -2.1516969627 0.9058183592 0.3921657994
H 0.4614357246 -2.5333833058 1.3821325323
H 2.9023135964 -2.1306269428 1.2862410899
H 2.1821572938 1.6282459642 -0.6746394087
H -0.2291787955 1.2282928242 -0.5937138297
H -1.7612304794 -2.1468514868 -1.7116609604
H -1.8757303936 -2.1255795977 -4.1838956337
H -2.5424940579 -0.0569832726 -5.3829092007
H -3.0882239340 1.9932635409 -4.0917960696
H -2.9597383082 1.9713736557 -1.6190126342
H -4.3688174744 1.4102406112 2.1741179491
