54
CONF320
C -6.0985142708 1.6311707958 0.2031748802
C -4.5757428731 1.6052313787 0.2169984852
C -3.9493937185 0.8957560270 -1.0417708981
N -2.6794880983 0.3567638093 -0.5866981359
C -2.3666505166 0.3813044923 0.8510784258
S -3.9843859532 0.5895893626 1.6817763184
C -1.7387503274 -1.0397687081 0.6862270404
C -2.0711562311 -0.8655583440 -0.8159993425
O -1.9423067912 -1.5300350398 -1.8180101297
N -0.3928754068 -1.2961144486 1.0959520514
C 0.6535757925 -0.6456401457 0.5364672508
O 0.5254154268 0.1582631987 -0.3843477976
C 2.0176754825 -0.9408587511 1.1770382982
C 2.2229986440 -0.0466732918 2.3805369472
C 2.0935569796 1.3406154357 2.2723521066
C 2.2717188918 2.1488008915 3.3905603634
C 2.5783936904 1.5800074842 4.6259744608
C 2.7054660295 0.1980972403 4.7381274219
C 2.5264005985 -0.6127554219 3.6193369986
C 3.0761270907 -0.7548533306 0.1014447882
O 3.8885749535 0.1313559033 0.0354618645
O 2.9629607372 -1.7608913020 -0.8071300736
C 3.8072826666 -1.7047271004 -1.9323637646
C 4.9780680843 -2.4461002764 -1.9217911866
C 5.7798012999 -2.4375242333 -3.0614130892
C 5.4034862697 -1.6961464838 -4.1795409333
C 4.2205988310 -0.9590007288 -4.1632209105
C 3.4091407672 -0.9586820017 -3.0312728631
C -4.8797443973 -0.1575610917 -1.6330258487
O -5.5787747963 0.0591394456 -2.5990582495
O -4.8781956579 -1.3096036364 -0.9480549730
C -4.0162989185 3.0267181431 0.3062018310
H -6.5313556000 0.6270478777 0.2022733278
H -6.4454397830 2.1677015253 -0.6861472038
H -6.4642627536 2.1658936753 1.0838393555
H -3.8174220388 1.6542776245 -1.8206277251
H -1.6525574318 1.1588726087 1.1375209041
H -2.3987606296 -1.8057272852 1.1032555865
H -0.2321803860 -1.9349869938 1.8610523294
H 2.0485770843 -1.9899852162 1.4903697812
H 1.8535045889 1.7870935101 1.3126752900
H 2.1697190048 3.2255568782 3.2975358357
H 2.7164147147 2.2124219518 5.4973430081
H 2.9431102990 -0.2525195580 5.6967064450
H 2.6244815365 -1.6909642697 3.7082941560
H 5.2508353838 -3.0159483596 -1.0397658410
H 6.6997855387 -3.0131439109 -3.0724106576
H 6.0310537496 -1.6939025445 -5.0647576338
H 3.9244424256 -0.3824216567 -5.0336357870
H 2.4829960282 -0.3942902541 -2.9956352484
H -5.5119937492 -1.9189310757 -1.3664367889
H -4.3698208983 3.6094755546 -0.5518669453
H -2.9227647592 3.0377928593 0.3007301538
H -4.3673272965 3.5063667815 1.2229608151
