23
CONF11
C -4.3562276140 -0.1662200054 0.2002683699
C -3.7107244479 0.3680352599 1.3115189617
C -2.3336021197 0.5556811374 1.3081854626
C -1.6044335079 0.2007560250 0.1760103836
C -2.2391098442 -0.3346274981 -0.9421868044
C -3.6167832900 -0.5136401500 -0.9261751652
N -0.1843750505 0.4075443470 0.1292134476
C 0.6322726639 0.0077775193 1.2406658217
O 0.1471211657 -0.4863854398 2.2444298868
C 2.0332141775 0.2564943395 1.0143500865
C 2.5198732825 0.7786041142 -0.1606701794
C 1.5512870501 1.0789150998 -1.1674076971
N 0.2714854294 0.9015591596 -1.0228101625
N 3.8482540194 0.9653414116 -0.4224686312
Cl 3.1188522218 -0.1623607599 2.3026601201
H -5.4312786519 -0.3119223304 0.2125844261
H -4.2813146121 0.6450503186 2.1917863116
H -4.1110827897 -0.9327872279 -1.7964351243
H 1.8638795195 1.4857407481 -2.1260393044
H 4.0878113186 1.6086670482 -1.1584365957
H 4.4763663528 0.9566302516 0.3661956100
H -1.6527305368 -0.6009617841 -1.8136069686
H -1.8300890745 0.9658489697 2.1729752293
