51
CONF36
O 3.3718523715 1.6780876424 -0.0476039202
C 2.4689812590 0.9011004941 0.7507576087
C 2.5790853989 -0.5394982282 0.2528765981
C 2.3132285069 -0.7034893388 -1.2476657952
C 0.9856579408 -0.1063074512 -1.6788297483
C -0.3283285684 -0.7404828548 -1.1032999103
N -0.7390465628 -0.9775067508 -2.5033140787
C 0.4411398894 -0.5006609519 -3.0575155759
O 0.8404272350 -0.4525758218 -4.1964886866
C -1.8734035820 -1.6006734527 -3.0240583288
C -2.0258813250 -1.7428385048 -4.4103747172
C -3.1586169919 -2.3643165591 -4.9180942160
C -4.1238467861 -2.8313490362 -4.0402943243
F -5.2285063454 -3.4328183479 -4.5409198509
C -3.9956054132 -2.7012612309 -2.6686225764
C -2.8609194129 -2.0817243183 -2.1577657321
C -1.2154018226 0.1446028428 -0.2806966997
C -1.3646433423 -0.0847053284 1.0884652420
C -2.1230969526 0.7639426351 1.8837837372
C -2.7564785604 1.8626773067 1.3051257058
O -3.4950930663 2.6647430801 2.1269428159
C -2.6280401294 2.0998476712 -0.0648935741
C -1.8611883481 1.2455407638 -0.8455486906
C 2.7777069306 1.0036247633 2.2264041098
C 1.7486529492 1.1715098326 3.1533069598
C 2.0158790118 1.2305820333 4.5183483634
C 3.3324057324 1.1282449858 4.9332166998
F 3.6062742227 1.1905902688 6.2559025370
C 4.3829293341 0.9723039271 4.0420377347
C 4.0945859171 0.9085461692 2.6840406081
H 3.3695991899 2.5778362902 0.2992310161
H 1.4340509006 1.2506194932 0.5988194755
H 3.5825422787 -0.9123757488 0.4904760710
H 1.8730381590 -1.1441808065 0.8360447382
H 3.1115155061 -0.2242769102 -1.8220032334
H 2.3327542285 -1.7714355211 -1.4995210163
H 0.9854467672 0.9829705733 -1.5620934399
H -0.1333880399 -1.6844994473 -0.5751908424
H -1.2537507487 -1.3721775918 -5.0732483893
H -3.2968802974 -2.4887999386 -5.9861350474
H -4.7731799246 -3.0783624742 -2.0143132075
H -2.7492579032 -1.9610004229 -1.0859303768
H -0.8768111780 -0.9430745606 1.5440038828
H -2.2436348243 0.5840967594 2.9466765385
H -3.8875774718 3.3765610793 1.6087527441
H -3.1320512125 2.9484916606 -0.5208694611
H -1.7724809790 1.4299930943 -1.9125360667
H 0.7229749405 1.2607215912 2.8037311891
H 1.2275495675 1.3648581820 5.2504549915
H 5.3987501226 0.9039846351 4.4148828246
H 4.9000812488 0.7943135424 1.9652514035
