47
CONF105
C -6.9266702174 -3.3646249640 1.0850456307
O -6.3888312452 -2.3774126986 0.1617639525
P -5.1097008994 -1.5306020931 0.6024419537
S -5.1581575410 -0.5852707907 2.2979699305
O -3.9054267825 -2.5764334853 0.4249985472
C -2.7194322453 -2.5609559592 1.2665301840
O -5.0710916500 -0.6141145583 -0.7384424736
C -4.0207942660 0.2955417699 -0.9061341158
C -2.8197109359 -0.1446881201 -1.4523528257
C -1.7952361070 0.7702011922 -1.6556840357
C -1.9717389936 2.1086760406 -1.2929041355
C -3.1867124248 2.5345523731 -0.7534262500
C -4.2233857120 1.6250218921 -0.5664805515
S -0.6922298803 3.3253566717 -1.5809064816
C 0.7645238047 2.5119974100 -0.9355955505
C 0.7290116609 1.7623294017 0.2438521123
C 1.8918339637 1.1815658409 0.7318113044
C 3.0878743375 1.3807215380 0.0534504019
C 3.1462053973 2.1417686489 -1.1057552498
C 1.9739011197 2.6984482276 -1.6083381906
O 4.2487203567 0.8296385072 0.5991363027
P 5.0330888449 -0.4040074801 -0.1290843826
S 3.8992136029 -1.7224377343 -0.9808998908
O 5.9818093905 -0.8596384332 1.0735856384
C 5.4078934301 -1.5256831060 2.2331538051
O 6.0726098036 0.2574502295 -1.1407939864
C 6.9986356776 1.2899107367 -0.6802631473
H -7.2485956580 -2.8769459181 2.0088218545
H -6.1758155998 -4.1308367460 1.2976713592
H -7.7801786740 -3.8074857145 0.5731841504
H -3.0003028299 -2.6962633905 2.3129441826
H -2.1126658902 -3.3985228758 0.9222831470
H -2.1750504268 -1.6220675185 1.1392557316
H -2.6985277966 -1.1869515916 -1.7268024882
H -0.8587686917 0.4405856816 -2.0932614443
H -3.3225766119 3.5725494967 -0.4684344767
H -5.1717325238 1.9367016184 -0.1435097835
H -0.2053530404 1.6228926453 0.7770731875
H 1.8799342379 0.5856892566 1.6382663703
H 4.0897785071 2.2851372727 -1.6217421229
H 2.0040116884 3.2741382002 -2.5276973531
H 6.2475840695 -1.7444172570 2.8918600748
H 4.6974675837 -0.8619035889 2.7330112801
H 4.9157974674 -2.4518389027 1.9246682822
H 7.7494162022 0.8460499697 -0.0235442025
H 7.4659748499 1.6835241512 -1.5821931426
H 6.4533995466 2.0826543552 -0.1614871114
