33
CONF9
C -4.0015993121 -0.5945851508 -0.3279934498
C -2.6182780976 -0.0835426519 -0.7405331085
C -2.6687996325 1.1284699420 -1.6560365689
O -3.6189685069 2.0230074801 -1.2749938717
O -1.9344986676 1.3150991226 -2.5958254467
C -1.7214024661 0.2694539493 0.4368506431
C -2.1713884627 1.0756766682 1.4844368960
C -1.3288558373 1.3855380310 2.5490065431
C -0.0280178404 0.9037797134 2.5767891007
C 0.4493733629 0.1273151907 1.5173826975
C -0.4045795890 -0.1871407463 0.4568028436
C 1.8449722238 -0.4030493836 1.5973927783
O 2.3512364172 -0.6351802652 2.6859890322
C 2.6117790722 -0.6433905686 0.3388366804
C 2.4119467821 0.1183390124 -0.8182634782
C 3.2010785562 -0.0988409607 -1.9424639955
C 4.1801018009 -1.0877216543 -1.9263879073
C 4.3857951438 -1.8482239150 -0.7758775644
C 3.6155443263 -1.6186564783 0.3546104456
H -4.5585714801 0.1531432599 0.2387794425
H -3.8888381066 -1.4874897174 0.2925316188
H -4.5928417794 -0.8556669164 -1.2104068519
H -2.1055534731 -0.8512000213 -1.3266822507
H -3.5419395292 2.7791858680 -1.8780840993
H -3.1831084516 1.4670417469 1.4701191195
H -1.6943591323 2.0070193658 3.3602024477
H 0.6367875053 1.1188164854 3.4062977214
H -0.0463443590 -0.8146333937 -0.3534350649
H 1.6572942399 0.8976400437 -0.8317622817
H 3.0497604441 0.5045364137 -2.8314968220
H 4.7877989494 -1.2630516894 -2.8084757082
H 5.1518490342 -2.6168396588 -0.7629999171
H 3.7726270875 -2.1848490103 1.2664118851
