46
CONF4
C -1.3173704510 0.1241828450 0.8543768219
C -2.2124065377 -0.5078260879 1.9320335246
C -3.6540630524 -0.3210306677 1.3940894246
C -3.5186459894 0.3088179006 -0.0346565874
O -4.5599295529 -0.1044561406 -0.9324312883
C -3.6412075370 1.7651524396 0.0480201320
C -3.7672021183 2.9605771460 0.1464667502
C -2.0726697993 -0.1243444092 -0.4642174754
C -2.1214831602 -1.6091721595 -0.8581354389
C -1.4142439733 0.6898093528 -1.5764771865
C 0.0852600380 0.3684805330 -1.6899798879
C 0.8213714312 0.5390315059 -0.3484332819
C 2.3139441396 0.2459731291 -0.4245656331
C 3.0088604340 -0.2874884329 0.6777657943
C 2.3072954524 -0.6488672050 1.9679629649
C 0.9081453454 -0.0532474715 2.0796905570
C 0.1477268617 -0.2755451991 0.7757987975
C 4.3842669824 -0.5179081949 0.5923521046
C 5.0904075417 -0.2250542386 -0.5691807825
O 6.4366928143 -0.4813761122 -0.5765854942
C 4.4198434223 0.3132840856 -1.6665857300
C 3.0509568538 0.5405521375 -1.5784084502
H -1.3352889359 1.2147271066 1.0138827700
H -1.9776278748 -1.5714968021 2.0511433632
H -2.0751361188 -0.0330955327 2.9068011369
H -4.1742680690 -1.2791969350 1.2958961673
H -4.2669954628 0.3148504860 2.0360588027
H -4.6081532846 -1.0689757617 -0.8931585898
H -3.8586784333 4.0195267486 0.2329449178
H -2.6034794953 -2.2319968138 -0.0988760943
H -2.6681841910 -1.7275081630 -1.7996077616
H -1.1189157067 -2.0094499304 -1.0165006741
H -1.5266040231 1.7575892442 -1.3507663086
H -1.9088752680 0.5053574610 -2.5383999222
H 0.5142949637 1.0365419578 -2.4427456645
H 0.2389861000 -0.6540650313 -2.0576069642
H 0.7079799953 1.5990027031 -0.0594410255
H 2.2327188704 -1.7443998850 2.0236098268
H 2.9315816406 -0.3444675995 2.8158274551
H 0.9645739253 1.0255833055 2.2828612500
H 0.3794173656 -0.5144415587 2.9209830682
H 0.2195399532 -1.3462462591 0.5271135865
H 4.9181216533 -0.9311685873 1.4445076235
H 6.8050705936 -0.2342590026 -1.4354077737
H 4.9616389072 0.5525933067 -2.5780346577
H 2.5527328605 0.9654506915 -2.4429614696
