49
CONF18
C 0.7503388665 -2.2113835087 -4.3385609042
C -0.3451068420 -1.8334786243 -3.3684717350
O 0.2469741794 -0.9801928413 -2.3671965943
C -0.5473917393 -0.5098376470 -1.3602059148
C -1.9073573332 -0.8006161915 -1.2364048426
C -2.6522242547 -0.2915985785 -0.1663001243
C -1.9953679705 0.5128424327 0.7701911162
C -0.6386204752 0.8004626811 0.6411582845
C 0.1068939913 0.3013998518 -0.4202429359
C 1.5819024327 0.5643887951 -0.6062749944
C 2.4567268028 -0.7112220449 -0.4305575593
O 3.3981720009 -0.3456603888 0.6286917388
C 3.0756034799 0.9261912751 0.9821402318
N 2.1172422369 1.5163074261 0.3839157594
C 3.9043937288 1.5120929622 2.0466237292
C 4.1639326342 0.8375991405 3.2423229920
C 4.9349744150 1.3658774373 4.2608776890
C 5.4862440739 2.6314149848 4.0837485438
C 5.2646912396 3.3502266229 2.9130739461
C 4.4813120855 2.7790135522 1.9265887647
F 4.2892586889 3.4675190006 0.7841571330
F 3.6047911820 -0.3769699784 3.4231000875
C -4.1448178075 -0.5938587228 0.0005334987
C -4.9344300827 0.7290457303 -0.0161681283
C -4.3697025064 -1.3054311295 1.3485520866
C -4.6915370447 -1.4936871138 -1.1144631390
H 1.1703858312 -1.3216246535 -4.8163116927
H 0.3382722002 -2.8600987447 -5.1167670886
H 1.5525766155 -2.7510130010 -3.8270204051
H -0.7689124602 -2.7220457043 -2.8824264352
H -1.1545903808 -1.2915356496 -3.8749188846
H -2.3854818655 -1.4279874054 -1.9750906731
H -2.5399042350 0.9238134716 1.6138223037
H -0.1465561549 1.4268283694 1.3781023317
H 1.7357950348 0.9851355457 -1.6085981695
H 3.0371435583 -0.9635803336 -1.3195844425
H 1.8874924686 -1.5784648030 -0.0876458928
H 5.0884290474 0.7955956487 5.1695793624
H 6.0956765555 3.0638224058 4.8696210703
H 5.6922201859 4.3335572937 2.7556524457
H -4.6265738635 1.3913903864 0.7981471051
H -6.0050841919 0.5256418155 0.0976166955
H -4.7824128770 1.2564094608 -0.9640908047
H -5.4343390263 -1.5289617364 1.4793775951
H -4.0473976682 -0.6844010778 2.1892895313
H -3.8120924411 -2.2475365354 1.3837926114
H -4.5867322102 -1.0270272022 -2.0997076147
H -4.1875542864 -2.4658486962 -1.1334621070
H -5.7572557285 -1.6725128773 -0.9405359869
