28
CONF7
C -4.0910521317 -0.0221797345 -0.6113278439
C -3.1855374790 0.3357568536 0.3840355945
C -1.9318020335 -0.2713840526 0.4461542856
C -1.5688120642 -1.2400839384 -0.4887735934
C -2.4803396251 -1.5920961434 -1.4881889468
C -3.7337875508 -0.9906227866 -1.5487990287
C -0.2279386292 -1.9505207428 -0.4411762477
N 0.7752681840 -1.3093164541 0.3886851861
C 1.4060031363 -0.1677168034 0.0420323682
C 2.2757417481 0.5004332238 0.9281703984
C 2.8864136453 1.6608198802 0.4467926899
N 3.6628171090 2.1075034792 1.4870455191
C 3.4908218015 1.2215469165 2.5207915412
N 2.6638961906 0.2378390980 2.2287428183
N 2.7277028061 2.1988348530 -0.7717255987
C 1.8839744547 1.4771960364 -1.5154027950
N 1.2249751159 0.3534502126 -1.1891395033
H -5.0664448347 0.4518063692 -0.6599006028
H -3.4531056217 1.0913824591 1.1166409972
H -1.2320276094 0.0166036934 1.2249367866
H -2.2028051388 -2.3415066345 -2.2256058160
H -4.4305958505 -1.2733392646 -2.3321859255
H 0.1580739258 -2.0539733501 -1.4606188796
H -0.3700642777 -2.9634851456 -0.0482226396
H 0.8663439167 -1.6075360267 1.3476223590
H 4.2505093037 2.9289209751 1.4955788492
H 4.0016916799 1.3534078782 3.4662443927
H 1.7000793259 1.8482599426 -2.5235050582
