32
CONF1
C -3.6886694650 -0.6255146142 0.3652168078
C -3.6920814491 0.7041634607 0.0617641109
C -2.4922973518 1.4114992465 -0.2013540112
C -1.2613926575 0.7081845562 -0.1129624776
C -1.2576207665 -0.6930479281 0.2062838020
C -2.4851733687 -1.3713735787 0.4324671470
N -2.5884065894 -2.7071536364 0.6838418917
C 0.0034998264 -1.4142415125 0.3231068994
O 0.0062549640 -2.6496865386 0.6037340215
C 1.2615078957 -0.7080329530 0.1137489969
C 2.4923679012 -1.4114130617 0.2017212394
C 3.6920367548 -0.7042902037 -0.0621995098
C 3.6886300138 0.6254049741 -0.3657279196
C 2.4852314248 1.3714091403 -0.4322091875
C 1.2577125408 0.6931866998 -0.2055567629
C -0.0034344861 1.4144222869 -0.3221486428
O -0.0061899237 2.6500302675 -0.6021227921
N 2.5885147799 2.7072934904 -0.6833746642
N 2.6024795218 -2.7244498141 0.5542608716
N -2.6022532565 2.7245371213 -0.5532472349
H -4.6273410466 -1.1386709364 0.5557013010
H -4.6334861683 1.2445835381 0.0110507057
H -3.4688178241 -3.0589581200 1.0235552356
H -1.7312585562 -3.2041973489 0.8836423487
H 4.6334068396 -1.2448183300 -0.0120244884
H 4.6272584631 1.1384115883 -0.5568207339
H 3.4685733929 3.0586347732 -1.0245083406
H 1.7313017024 3.2041472051 -0.8833858545
H 1.7465582508 -3.2616724906 0.5825160623
H 3.4808508176 -3.1866639177 0.3823989631
H -3.4813284875 3.1864741677 -0.3844805063
H -1.7464337032 3.2618024473 -0.5828875005
