34
CONF182
C -3.4556674035 -1.8708279423 -0.2582850828
C -3.4361498320 -0.3640220514 -0.2417377563
O -2.6462031425 0.1002696927 -1.4066512505
P -1.4443203121 1.1238779163 -1.3527195327
S -0.9653278626 1.9068747125 -3.0521704057
O -1.8299546002 2.0677356286 -0.1272486831
C -0.9133408293 3.1370214999 0.2997696176
C -1.5094868106 3.7653487144 1.5337663758
O -0.0999222830 0.2749632685 -0.8313864061
N -0.3109756141 -0.3535236555 0.4011781979
C 0.7257322964 -1.0256356182 0.7892547169
C 0.5004232797 -1.6235382415 2.0768973738
N 0.3484191043 -2.1218069229 3.1097050778
C 2.0375497165 -1.2447047952 0.1582945106
C 2.1901995096 -1.3522193357 -1.2325543906
C 3.4496189445 -1.5840926443 -1.7696409227
C 4.5636771216 -1.6973769798 -0.9400236159
C 4.4153593017 -1.5973232921 0.4413674027
C 3.1583652500 -1.3860631706 0.9909350687
H -2.4482387307 -2.2744774929 -0.1236345221
H -4.0837732081 -2.2239209242 0.5658476712
H -3.8719182113 -2.2475877472 -1.1962984995
H -4.4319345795 0.0638000907 -0.3812911728
H -2.9956802387 0.0306746888 0.6744853983
H -0.8231672133 3.8510033631 -0.5245716003
H 0.0659886666 2.6914863600 0.5037675372
H -2.4951951860 4.1858169323 1.3175019255
H -0.8541005652 4.5730889326 1.8726567633
H -1.6011802721 3.0312006349 2.3386807488
H 1.3321463762 -1.2794292074 -1.8867069825
H 3.5603445886 -1.6782057135 -2.8448634665
H 5.5448914198 -1.8710751933 -1.3698582206
H 5.2777017140 -1.6907707862 1.0929263981
H 3.0461194055 -1.3165600212 2.0685193265
