58
CONF24
C 3.5605018893 -1.3908102167 -5.2759120838
C 3.6435688137 -0.8436352972 -3.8494192587
C 5.0624332522 -1.0054107708 -3.2989235400
C 3.1744565459 0.6170007777 -3.8114045312
C 2.9845944972 1.1943439576 -2.4084932026
C 2.4935782814 2.6430646460 -2.4380470908
C 2.3589496174 3.2914131069 -1.0565460371
C 1.3374968246 2.5893360787 -0.1632975194
C 1.0307684802 3.3499000605 1.1239619928
C 0.1060554102 2.5902607750 2.0487618463
O -1.1924429534 2.3934281454 1.3730932831
P -1.8494780030 0.9644986533 1.2229463107
O -3.1248157698 0.9997622629 0.4777644664
O -1.8959379260 0.4636610902 2.7547229572
C -2.0765038553 -0.8721156551 3.1270424839
C -2.8599628734 -1.7515291067 2.3882521661
C -3.0019996702 -3.0608003044 2.8438851756
C -2.3818352298 -3.4752826063 4.0196334219
C -1.6088154251 -2.5728225299 4.7476188576
C -1.4483115600 -1.2642362914 4.3023960522
O -0.7178020691 -0.0373766131 0.6515656009
C -0.5618487397 -0.4530923677 -0.6701189486
C -0.9904723528 0.2980361103 -1.7585928887
C -0.7377144119 -0.1827389622 -3.0420278174
C -0.0688917633 -1.3886057727 -3.2317091053
C 0.3502091872 -2.1252882443 -2.1257963101
C 0.1052580626 -1.6613424967 -0.8374887972
H 2.5394601628 -1.3202182326 -5.6667879778
H 4.2177061237 -0.8199494498 -5.9437339435
H 3.8701122757 -2.4407185232 -5.3171619971
H 2.9591977887 -1.4288789154 -3.2180989432
H 5.3833161631 -2.0514801641 -3.3504013284
H 5.1365621060 -0.6850009594 -2.2554563319
H 5.7691991924 -0.4073315929 -3.8879359999
H 3.8929611697 1.2340707424 -4.3720710993
H 2.2170021890 0.6914502187 -4.3465728897
H 3.9266422340 1.1515307725 -1.8458506741
H 2.2650218257 0.5639748105 -1.8676330509
H 3.1871455415 3.2381679718 -3.0472508271
H 1.5202550559 2.6821722730 -2.9487167045
H 3.3380041553 3.3037300843 -0.5574263864
H 2.0600834473 4.3407346133 -1.1829054333
H 1.6892460498 1.5814343011 0.0918863178
H 0.4091494182 2.4588015019 -0.7318626010
H 1.9562822491 3.5360274812 1.6855226840
H 0.5949878439 4.3301687304 0.8939318700
H -0.1147419101 3.1460129384 2.9634624410
H 0.5289193613 1.6154729528 2.3134605895
H -3.6095389038 -3.7555023162 2.2727728758
H -2.5016872832 -4.4956410398 4.3681184887
H -1.1222059563 -2.8861205471 5.6657724743
H -0.8456610103 -0.5483589166 4.8510579429
H -1.5120525504 1.2373071121 -1.6164572883
H -1.0663662017 0.3995932656 -3.8969470250
H 0.8731578843 -3.0665186055 -2.2620966658
H 0.4258088272 -2.2186915990 0.0362775366
H -3.3553755005 -1.4246266672 1.4801499963
H 0.1289851771 -1.7505752720 -4.2352010797
