26
CONF1
C -2.8060313925 -0.1386472588 0.6328549739
C -1.5872229809 -1.0348518116 0.3913867775
C -0.2836440495 -0.2180709466 0.2831286338
C 0.9476673254 -1.0836616366 -0.0340094383
C 2.3152601053 -0.3716095526 0.0000419326
C 2.5134092073 0.8427343758 -0.9062878998
O 1.9083078002 2.0197742024 -0.3665224587
O 2.6351582103 -0.0271833617 1.3557174950
O 1.0370805492 -2.1860458188 0.8918389321
O -0.3984989725 0.7193249705 -0.8032781717
O -1.5744757249 -1.9207257637 1.5075042610
O -3.0884651655 0.7435965969 -0.4687442014
H -3.6701857521 -0.7774128555 0.8517114145
H -2.6201040269 0.5029046965 1.5007851446
H -1.7266683879 -1.5882810226 -0.5556792459
H -0.1325937360 0.3122760506 1.2394981692
H 0.8025845069 -1.5213380897 -1.0299524289
H 3.0444278981 -1.1347480087 -0.3030374737
H 2.1444047695 0.6219476039 -1.9170019458
H 3.5868979514 1.0480399469 -0.9665665419
H 2.3004287652 0.8746586671 1.4861524423
H 1.4981849317 -1.8345029051 1.6719118724
H -1.3293644921 1.0190016199 -0.8362195552
H -0.6961528967 -2.3433578580 1.4936316966
H 0.9480264511 1.8923424028 -0.4978408688
H -3.4505915356 0.2133027480 -1.1914351778
