58
CONF11
C 6.3171440996 1.6568930746 -2.3324405143
C 4.9690372298 0.9351397012 -2.2793301984
C 4.4933750715 0.5966495677 -3.6931420980
C 5.0634506749 -0.3155494388 -1.3954648073
C 3.7225519193 -0.9685668629 -1.0581345816
C 3.8890404568 -2.1857576202 -0.1464319936
C 2.5799202889 -2.8996762638 0.2002535104
C 1.6348345147 -2.0658967109 1.0640758344
C 0.3709822510 -2.8301460475 1.4524123951
C -0.6067069730 -2.0127785638 2.2738282402
O -1.0390415659 -0.8058262875 1.5665873657
P -2.0288974433 -0.9521696898 0.3169649159
O -2.8848750195 -2.1501734221 0.3159116014
O -1.1423553479 -0.8705687675 -1.0234579721
C -0.3204115026 0.1723426520 -1.4397643170
C 0.1930799361 1.1432947306 -0.5853841271
C 1.0245603482 2.1272586341 -1.1153076471
C 1.3414513141 2.1427499101 -2.4690644897
C 0.8219286772 1.1586762493 -3.3056082737
C -0.0089069583 0.1693552393 -2.7951766544
O -2.7238953946 0.5004471127 0.2837725130
C -3.4245024995 1.0107087877 1.3791716638
C -3.1927135798 2.3424024798 1.6949253183
C -3.8930000620 2.9149761081 2.7509625418
C -4.8058581705 2.1589753255 3.4816864677
C -5.0237785604 0.8261207960 3.1460758028
C -4.3388151858 0.2388116036 2.0858565366
H 6.6535739530 1.9477506706 -1.3318407721
H 7.0845344718 1.0054955513 -2.7679316945
H 6.2607801455 2.5612378534 -2.9475279746
H 4.2315234888 1.6113023414 -1.8217492479
H 4.4094321503 1.5004515063 -4.3067422164
H 3.5153807283 0.1082698629 -3.6878532409
H 5.2077954420 -0.0755409793 -4.1842295117
H 5.7189629724 -1.0494314345 -1.8884448391
H 5.5633656452 -0.0447684736 -0.4548097057
H 3.2052772415 -1.2815165357 -1.9745595961
H 3.0745548383 -0.2199693421 -0.5835379518
H 4.5654135957 -2.8994463386 -0.6352316370
H 4.3896520453 -1.8787389552 0.7830971231
H 2.0630485917 -3.1845726064 -0.7269447289
H 2.8101510028 -3.8366680140 0.7252990361
H 1.3527398811 -1.1535714742 0.5278180952
H 2.1605123340 -1.7422947150 1.9741480939
H -0.1388210737 -3.2058687910 0.5553188877
H 0.6337314415 -3.7151599043 2.0484604816
H -0.1406108447 -1.6281355218 3.1854146410
H -1.4957207622 -2.5951068346 2.5349560234
H -0.0435581227 1.1346362245 0.4712978122
H 1.4287631268 2.8866332261 -0.4534021126
H 1.9913363651 2.9128691650 -2.8701826627
H 1.0617861355 1.1599123915 -4.3638810236
H -0.4284296280 -0.6039214015 -3.4287604482
H -2.4767739680 2.9094097519 1.1100242767
H -3.7211137474 3.9562422967 3.0034915435
H -5.3487708183 2.6085387882 4.3060793739
H -5.7400120306 0.2337592145 3.7061365305
H -4.5108438602 -0.7940712790 1.8027905967
