52
CONF21
C 3.6994544154 -4.1353911821 -0.7273630812
N 3.6614738056 -2.7124682626 -0.4146812280
C 2.5751138698 -2.4124015436 0.5171810009
C 2.5604445083 -0.9300379454 0.8526006537
N 2.3777701258 -0.1346153950 -0.3669252776
C 3.4721594044 -0.4335810849 -1.2944834071
C 3.4931329650 -1.9170016009 -1.6285272151
C 2.3052277687 1.2988586554 -0.0730833149
C 0.9340992676 1.7111290961 0.4588063247
C -0.1398692225 1.5609151060 -0.6216258090
N -1.4887953485 1.7161970958 -0.0744973325
C -2.4579708675 2.4278991326 -0.8120449913
C -2.3565948141 2.6235405812 -2.1936851386
C -3.3114623038 3.3736042525 -2.8741472920
C -4.4058111362 3.9040456837 -2.2019085574
C -4.5476714117 3.6713820480 -0.8371523521
C -3.5755435274 2.9562661649 -0.1473662568
S -3.7011483488 2.7451245451 1.6141860805
C -3.0142501951 1.1132332941 1.7157128682
C -1.9433547523 0.7773327084 0.8665424218
C -1.3604992684 -0.4852813173 0.9999345889
C -1.8228212701 -1.3704844873 1.9740162720
C -2.8805247136 -1.0328861210 2.8095054630
C -3.4880079050 0.2089195662 2.6577939248
C -1.1315327409 -2.6927842272 2.1150548675
F 0.1009356540 -2.5580555608 2.6835116011
F -1.8219335916 -3.5606798069 2.8846770174
F -0.9311684537 -3.2915922641 0.9141570546
H 4.5347182579 -4.3435196797 -1.4048575627
H 2.7674841210 -4.4940121568 -1.2074911043
H 3.8527302539 -4.7125538511 0.1906067022
H 2.7235628663 -2.9908489839 1.4364100683
H 1.5895995961 -2.6992885955 0.0973479357
H 3.5082709220 -0.6626268075 1.3616075085
H 1.7387118940 -0.7323936976 1.5485681801
H 3.3207689133 0.1411735573 -2.2162778953
H 4.4543653678 -0.1451267699 -0.8689796483
H 2.5540421275 -2.1788248513 -2.1598128133
H 4.3302503113 -2.1242752405 -2.3066254042
H 3.0928956860 1.6083889271 0.6410818220
H 2.5004535302 1.8438258641 -1.0072870501
H 0.6767777849 1.1232679111 1.3451447587
H 0.9662113794 2.7567841256 0.7847813466
H -0.0103436984 0.6076832205 -1.1552962054
H 0.0042662546 2.3606576958 -1.3520974361
H -1.5363408788 2.1817351417 -2.7467599444
H -3.2023339612 3.5242644484 -3.9430436428
H -5.1538782718 4.4816892528 -2.7334172540
H -5.4061326101 4.0573373122 -0.2969151135
H -0.5448132250 -0.7833059012 0.3499523616
H -3.2363050772 -1.7286844363 3.5589242980
H -4.3258124463 0.4874666220 3.2882473452
