54
CONF440
C 1.5692607788 -0.4329444447 2.7489831403
C 1.7441066687 0.9727807143 2.1829514341
C 2.6277288211 0.9512624858 0.9653361103
C 2.8706833680 -0.2485855796 0.2819115734
C 3.6719474757 -0.2724775440 -0.8622840237
C 4.2400153889 0.8989447801 -1.3479430797
C 3.9882175008 2.0772186892 -0.6638347593
C 3.2066453260 2.1240383775 0.4735724583
F 4.5337801433 3.2368702692 -1.1324020372
O 2.3623386510 -1.4550501683 0.6899147094
C 1.2532751851 -1.3998348000 1.6205239335
C 1.0159676028 -2.8289563005 2.1154252914
C 0.8420346499 -3.8692909781 1.0035145472
N -0.4019590357 -3.6138480219 0.2617057670
C -0.2014547472 -3.0908759821 -1.0938946987
C -1.4880239347 -2.5024722294 -1.6587570767
C -1.9162887730 -1.2342035732 -0.9119187090
C -3.2638142359 -0.6756768278 -1.3298324561
C -3.5530053341 0.5862230957 -0.5182010105
C -2.3704534239 1.5173991118 -0.5531624464
C -1.1037392874 1.0346097753 -0.9087444186
O -0.8629682919 -0.2801134981 -1.2042834254
C -0.0082483403 1.8951422296 -1.0072916971
C -0.1482157723 3.2466815477 -0.7201254923
C -1.4006308273 3.7064702943 -0.3467942244
C -2.5042032117 2.8789814453 -0.2667146105
F -1.5540581243 5.0321362738 -0.0595386936
O -2.4964312239 -3.5168677011 -1.5647754625
O -0.1553392092 -2.8242650497 2.9375311536
H 0.7614325887 -0.4585400262 3.4840380233
H 2.4902008009 -0.7667446502 3.2442160253
H 0.7637006214 1.3826947165 1.9014650173
H 2.1638030670 1.6502335875 2.9339640670
H 3.8393653939 -1.2176648298 -1.3686673524
H 4.8605487170 0.8995280851 -2.2373147676
H 3.0359359638 3.0706146682 0.9777896438
H 0.3644878728 -1.0534924274 1.0684897231
H 1.8587110822 -3.1236700387 2.7544095441
H 1.7246471152 -3.8830610791 0.3503403658
H 0.7799016927 -4.8491291741 1.4906137996
H 0.1643175349 -3.8673762917 -1.7872507521
H 0.5554398372 -2.3011336036 -1.0639886042
H -1.3137999051 -2.2303865184 -2.7109918623
H -3.2442153107 -0.4490346603 -2.4040688517
H -4.0427599193 -1.4220569914 -1.1511749599
H -4.4389100434 1.1024250575 -0.9018552096
H -3.7737692771 0.3081484133 0.5208523026
H 0.9560239524 1.4906695833 -1.2964190662
H 0.6947981990 3.9262750622 -0.7824810759
H -3.4720864862 3.2885156791 0.0070916966
H -0.8913451620 -2.8543914297 2.3003321934
H -1.9128310436 -1.4296352381 0.1711304646
H -3.2099494430 -3.2948571633 -2.1748069934
H -0.9484170113 -4.4631011419 0.2034786900
