53
CONF55
C -4.1100327902 -2.4846683015 -2.4234075636
O -3.6541948056 -1.5395679277 -1.4146696360
C -3.6076695542 -0.2625528202 -1.7967951653
O -3.8836363726 0.1526463449 -2.8982238689
C -3.2110815745 0.6398839714 -0.6123375769
C -4.4339164716 0.7834555707 0.3285897903
C -4.1211160676 -0.1722325498 1.4541299510
C -2.7745978022 -0.5663561546 1.4301919275
C -2.1440260350 0.0442135942 0.2777277525
N -0.8842671979 0.2462777290 0.1217061615
N -0.5314340948 1.0008395838 -0.9595839049
C -1.5226714514 1.7637927467 -1.7734324752
O -2.7428668922 1.9001636230 -1.0774504041
C 0.7805417809 1.0858249929 -1.3403797178
O 1.1704090242 1.9145211416 -2.1507383838
N 1.6653303555 0.1666099524 -0.7110218867
C 2.9454791915 0.6701660865 -0.3199950695
C 3.0005695690 1.7344410858 0.5773004115
C 4.2314333080 2.2606258928 0.9512416212
C 5.3816976993 1.6969346095 0.4220422629
C 5.3470581745 0.6305260720 -0.4641041100
C 4.1127498690 0.1228186276 -0.8487600192
O 6.6381132052 2.1771949348 0.8575663937
C 7.1721742155 3.1869767784 0.1348459263
F 7.3862669713 2.8527147759 -1.1585361413
F 8.3485842800 3.5058687430 0.6861134325
F 6.3948110527 4.2942397523 0.1234489742
C 1.3569172657 -1.1955456320 -0.6961114902
O 0.5083503915 -1.7105637373 -1.3954743537
O 2.1313641575 -1.8436277180 0.1851928300
C 1.9629746823 -3.2840371092 0.1982078089
C -2.2478213348 -1.3968293632 2.4166230558
C -3.0884135977 -1.8501854250 3.4258218121
C -4.4279039992 -1.4575627246 3.4260171475
C -4.9693121047 -0.6173400666 2.4552290574
Cl -5.4761701657 -2.0493874612 4.7054453819
H -3.4335960038 -2.4631296881 -3.2800897680
H -4.0864245694 -3.4563161100 -1.9334953245
H -5.1246053941 -2.2298636600 -2.7366540108
H -4.4593573481 1.8167218126 0.6941202559
H -5.3851500467 0.5756361975 -0.1679982677
H -1.1336772086 2.7695969173 -1.9340973465
H -1.6596651007 1.2496916135 -2.7343919453
H 2.0832576975 2.1461635447 0.9860587944
H 4.2991730472 3.0837917190 1.6533008680
H 6.2692947352 0.2146281324 -0.8536530421
H 4.0572149689 -0.6981000850 -1.5553901987
H 2.1801432910 -3.6965276350 -0.7896246537
H 0.9431137116 -3.5381958135 0.4949668483
H 2.6803650831 -3.6454703941 0.9333743328
H -1.2054690821 -1.6972735238 2.3941149201
H -2.7159367719 -2.5082603373 4.2022018412
H -6.0123752985 -0.3233720810 2.4908364582
