47
CONF194
C -6.9246491901 -1.6368823146 -1.4457738916
O -5.7088352065 -1.3482131308 -2.2006623708
P -4.9166632026 0.0216609339 -1.9340710929
S -3.3472777807 0.1407069017 -3.0616610740
O -6.0021505184 1.1983342646 -1.9941169908
C -6.5758834090 1.5481298535 -3.2856207080
O -4.6874738390 0.1128150977 -0.3285195067
C -3.5824151068 -0.4886389643 0.2791869472
C -2.6717453414 0.3433132626 0.9193384983
C -1.5904430612 -0.2188273796 1.5836586981
C -1.4089250822 -1.6050346002 1.5752973549
C -2.3293229489 -2.4258681631 0.9216519873
C -3.4320251563 -1.8683402491 0.2805654988
S -0.0612261261 -2.3791864529 2.4605766435
C 1.3319735892 -1.3383673266 2.0414855590
C 1.5402388947 -0.8798270672 0.7378020225
C 2.6586737039 -0.1120290597 0.4411768294
C 3.5779444306 0.1641728638 1.4478856376
C 3.3963397466 -0.2993200355 2.7423099467
C 2.2592835839 -1.0425545239 3.0428536802
O 4.6885515496 0.9696473160 1.1913362897
P 5.8949097423 0.4807379105 0.2046969648
S 6.3715131022 -1.3908602313 0.3387832488
O 6.9913447448 1.5871848425 0.5614547420
C 7.6603684802 1.5524777058 1.8532713245
O 5.4668733439 0.9008760026 -1.2727547672
C 5.0529704865 2.2720395498 -1.5623593241
H -7.6798045211 -0.8703567846 -1.6368883718
H -6.6999693162 -1.6912036259 -0.3771865300
H -7.2693415221 -2.6048994148 -1.8077000391
H -7.0688750368 0.6800437995 -3.7329144489
H -7.3069746408 2.3286250364 -3.0778965618
H -5.7942367619 1.9258244032 -3.9497501842
H -2.8214117281 1.4174541502 0.9034334655
H -0.8834718391 0.4226611651 2.0988964840
H -2.1871116351 -3.5013473247 0.9070683193
H -4.1521910269 -2.5021047246 -0.2257904723
H 0.8276035249 -1.1134564844 -0.0460320349
H 2.8210551157 0.2577655676 -0.5658369838
H 4.1293820375 -0.0654827967 3.5068243150
H 2.0958158126 -1.3899557210 4.0576909534
H 6.9319364948 1.6922552343 2.6563989259
H 8.1873768479 0.6024196579 1.9742731516
H 8.3695771378 2.3793346836 1.8391431678
H 5.9158059405 2.9384698163 -1.5038606373
H 4.6584926337 2.2475662257 -2.5775312734
H 4.2743919527 2.5882403319 -0.8630874011
