22
CONF19
C 2.0999802495 -1.1015638124 -0.4429253011
C 0.7187530738 -0.4597482912 -0.5130796190
C 0.4593621887 0.4605921782 0.6786733432
C -0.7325018264 1.4336328695 0.5355578204
C -2.1069363455 0.7957729943 0.3354258708
O -2.2969745072 0.3409761954 -1.0095297794
O -0.4650108183 2.3710817922 -0.5095040520
O 0.2844787647 -0.3963120516 1.8141545690
O -0.2793039285 -1.4987292134 -0.6189937133
O 2.3408775492 -1.9404965642 -1.5745363267
H 2.1985703455 -1.6685915918 0.4948142859
H 2.8666714954 -0.3204647353 -0.4595026457
H 0.6458111540 0.1191019135 -1.4406024984
H 1.3557008222 1.0887144458 0.8017118941
H -0.7721026168 2.0037796284 1.4754926675
H -2.2512042959 -0.0160025771 1.0608033252
H -2.8716149857 1.5588886938 0.5123888175
H -1.7559671628 -0.4669898700 -1.0933381915
H -0.8680294559 1.9974223697 -1.3088659399
H 0.2024206183 0.1521368025 2.6045397087
H -0.3826606537 -1.8809058421 0.2665038666
H 1.6096811395 -2.5722951438 -1.6091880966
