56
CONF22
C -1.3429284788 2.2042996781 -2.8357818715
C -1.0096811138 1.0058951723 -1.9495782559
C -1.7259450778 -0.2521260617 -2.4463026483
C -1.3947709742 1.3114076472 -0.4740718049
C -0.7032013965 2.5348305232 0.0903669969
C -1.4639318917 3.5951437839 0.5865972811
C -0.8553970287 4.7385874665 1.0879346169
C 0.5319856645 4.8268173210 1.0977661337
C 1.3175729225 3.7847579152 0.6126664908
C 0.6878314271 2.6475858243 0.1138635057
O 1.0208640833 6.0277126238 1.6209288067
C 2.3571960141 6.2637447761 1.7371140875
F 2.9918546655 6.2201302211 0.5189241773
F 2.9763076876 5.3190125786 2.5184164392
C -1.0702611030 0.0944323035 0.3652247321
O 0.0342915357 -0.3653395726 0.5429532084
O -2.2029006492 -0.4600440208 0.8837338621
C -2.0069547908 -1.7488852808 1.5476604621
C -3.0934925762 -1.8636366245 2.5154376191
N -3.9463246567 -1.9848624967 3.2839690940
C -2.0177472146 -2.8549500629 0.5183428803
C -0.8017497828 -3.4082986245 0.1266510061
C -0.7857524247 -4.3330488085 -0.9144779426
C -1.9664847515 -4.7302739826 -1.5360365594
C -3.1758302325 -4.1853342672 -1.1153880799
C -3.2101665078 -3.2399382077 -0.0961119899
O 0.3779776660 -4.9385911498 -1.3363206969
C 1.5619356722 -4.2127504961 -1.3004935456
C 1.6269959749 -2.8999746212 -1.7623020074
C 2.8547799186 -2.2452585360 -1.7592141046
C 4.0043444873 -2.8967695707 -1.3145514328
C 3.9219043768 -4.2145428517 -0.8703718551
C 2.6980566006 -4.8792484632 -0.8564148205
H -1.0666369553 1.9920568497 -3.8732061917
H -2.4187874325 2.4139467139 -2.8068896211
H -0.8100447168 3.1043051894 -2.5161039510
H 0.0733465063 0.8283355777 -1.9755663876
H -2.8133915560 -0.1227564514 -2.3921213391
H -1.4609579765 -1.1392765585 -1.8603142127
H -1.4592526059 -0.4510350316 -3.4887295701
H -2.4765646210 1.4731599516 -0.4342132040
H -2.5480638643 3.5309778396 0.5781502827
H -1.4447894017 5.5646002034 1.4711546760
H 2.3978380502 3.8365754619 0.6122688885
H 1.3036430860 1.8384229751 -0.2631403365
H 2.4972745237 7.2511402657 2.1822463261
H -1.0557657907 -1.7335981294 2.0910349549
H 0.1200305357 -3.1044690987 0.6087198744
H -1.9259214013 -5.4578141265 -2.3396557364
H -4.0971265702 -4.4939738532 -1.5982552213
H -4.1533912787 -2.8002060192 0.2129407599
H 0.7314066279 -2.3984445089 -2.1140245570
H 2.9109799123 -1.2214445728 -2.1157768416
H 4.9585675315 -2.3804980480 -1.3171711594
H 4.8121186227 -4.7303246933 -0.5243986599
H 2.6147853688 -5.9032350352 -0.5076922498
