55
CONF274
C -0.8537070453 -2.7774728821 1.3908310608
C -0.6911012048 -1.8248900259 0.2324450826
O -0.6930835996 -0.4697345451 0.7768248010
C -0.7631691255 0.5296469796 -0.1223235844
O -0.7523000208 0.3599365482 -1.3249627873
C -0.7654089539 1.9001864084 0.5579498494
C -1.8703480765 2.7971656364 -0.0030712156
C -3.2916839100 2.3985199088 0.4284617012
C -3.7773113650 1.0908528470 -0.1453072262
C -4.1174722968 0.9977026248 -1.4995810884
C -4.5385459478 -0.2085865874 -2.0486868898
C -4.6319449058 -1.3475964460 -1.2487975044
C -4.3062644040 -1.2657441613 0.1021434197
C -3.8841497702 -0.0541004039 0.6476323756
N 0.5318277951 2.5749542275 0.3889273804
C 1.6830353367 1.8684584285 0.9527540651
C 2.8051348588 2.8666201308 1.2732294860
C 2.2838794790 0.8386573538 -0.0066560177
O 2.3933343856 1.1261942276 -1.2210139015
N 2.7563253717 -0.3160677785 0.4830743911
C 2.6576734981 -0.7815895082 1.8869127455
C 3.2474223791 -2.1885242130 1.8219984485
C 4.3226007750 -2.0630873337 0.7397411638
C 3.6530697387 -1.1897717154 -0.3166564877
C 2.8677953469 -1.9953458924 -1.3687610868
O 2.2001643971 -1.2582150508 -2.2566679962
O 2.8634779544 -3.2072476944 -1.4228476628
H -0.0360218671 -2.6741237708 2.1099628847
H -1.8022284194 -2.6019685726 1.9068522655
H -0.8503618617 -3.8042669675 1.0134377635
H 0.2516169557 -1.9770119130 -0.3029362391
H -0.9242321399 1.7508709431 1.6327920360
H -1.6680672330 3.8116532810 0.3567587342
H -1.7989568323 2.8144801291 -1.0975387665
H -3.3343444329 2.3567027664 1.5229728606
H -3.9698853660 3.1992773365 0.1113789813
H -4.0436753166 1.8813355540 -2.1287905975
H -4.7969896470 -0.2619844567 -3.1021048376
H -4.9600362765 -2.2900362701 -1.6762920178
H -4.3800629480 -2.1457481909 0.7344609134
H -3.6269294747 0.0028527508 1.7021122748
H 0.7013296933 2.7479625632 -0.6006930116
H 3.6836274001 2.3523678865 1.6764608039
H 3.1005725926 3.3996344212 0.3644263236
H 2.4476570401 3.5905754771 2.0092653210
H 1.6176781377 -0.7699700297 2.2216268457
H 3.2548261539 -0.1315019092 2.5387242550
H 3.6443041971 -2.5071392379 2.7878381765
H 2.4795284007 -2.9034348448 1.5067734848
H 5.2002113790 -1.5405792211 1.1331152358
H 4.6349520982 -3.0219649329 0.3253835441
H 4.3649646491 -0.5586901438 -0.8647658139
H -1.5155265810 -1.9058146572 -0.4822833647
H 1.3605872322 1.3864170703 1.8801666612
H 2.2944824525 -0.2834092687 -2.0190967345
