47
CONF86
C 5.6240252077 -1.5119844343 -0.7711599966
C 4.2470598779 -0.9514822189 -0.5768781369
C 3.1032452409 -1.6600139318 -1.0504826345
C 3.2767599165 -2.9779654119 -1.7392639893
C 1.8286638577 -1.1439811441 -0.8713984681
C 1.6304863667 0.0823299342 -0.2257960386
N 0.3835329842 0.6493115275 -0.0352855322
C -0.8469860251 0.0237714757 -0.5496040436
C -1.5596368372 -0.7893321870 0.5434941536
O -0.8578533487 -2.0021811132 0.8155553247
C -3.0099144974 -1.0824790902 0.1675483956
O -2.9610905364 -1.8508258698 -1.0402593488
C -3.8781628399 0.1809324826 -0.0056115989
O -3.7141299455 1.0867002062 1.0814617421
C -5.3622776060 -0.1675023369 -0.0121979240
O -5.6099849523 -1.0979633570 -1.0807411142
C 0.2447592124 1.8294733120 0.6525902406
N -0.9719642200 2.3097317500 0.8538344795
C -1.1185070206 3.4980458219 1.5164495194
O -2.2196820532 3.9942195509 1.7413870158
N 0.0326669348 4.1729690416 1.9578034541
C 1.3352784539 3.7589334275 1.8130305443
O 2.2838273780 4.4037045994 2.2359547611
C 1.4582060018 2.4633910140 1.0974795645
N 2.6543114000 1.9743075175 0.9076851893
C 2.7680029056 0.7906928940 0.2597810231
C 4.0556195902 0.2494628950 0.0658979005
H 6.3774938400 -0.8408314341 -0.3550649839
H 5.8417556560 -1.6625941849 -1.8343002084
H 5.7229955190 -2.4889491713 -0.2849734582
H 2.3161506992 -3.3996875172 -2.0393815551
H 3.7851135119 -3.6939440918 -1.0833451301
H 3.9059230201 -2.8688389450 -2.6300120975
H 0.9888146596 -1.7267351966 -1.2225149016
H -1.4812899721 0.8355824924 -0.9085503233
H -0.6010023878 -0.6051597213 -1.4029588638
H -1.5510648554 -0.2250444081 1.4797177142
H -1.0412616755 -2.6044478662 0.0796034004
H -3.4337355941 -1.6834790330 0.9901057375
H -3.8854538833 -1.9912570379 -1.3047548066
H -3.6239127889 0.6565782900 -0.9664293153
H -2.8694565056 1.5634091527 0.9678350691
H -5.9462916129 0.7511530713 -0.1541453843
H -5.6253291313 -0.6093973069 0.9587386600
H -6.4692339665 -1.5089176674 -0.9304145350
H -0.1226967200 5.0504296348 2.4410524401
H 4.8962273288 0.8198649774 0.4485187473
