37
CONF9
C 3.1987354801 -1.5879522075 2.6597046337
C 3.8367420542 -1.2858454458 1.3205391520
C 5.0868918552 -0.4336563336 1.4237973787
O 2.8157632511 -0.5409290618 0.5572990947
C 2.8678964673 -0.6120202677 -0.7795013560
O 3.7134579487 -1.2132210202 -1.4121704011
C 1.7148612921 0.1157795528 -1.3866188241
C 1.8011047904 0.8256583736 -2.5912794993
C 0.6833397085 1.4367699188 -3.1439767826
C -0.5277853116 1.3225408684 -2.4861093110
C -0.6777333007 0.6281059358 -1.2845331101
C 0.4712565348 0.0409708328 -0.7554161497
C -1.9634472578 0.5244978471 -0.5949810700
N -3.0927628157 0.2177369366 -1.2541453838
N -4.0726369456 0.1880075415 -0.3476841337
C -3.6118258602 0.4680668630 0.9010673526
C -2.2479250285 0.6894398015 0.7728199216
Br -1.0666508093 1.1925017847 2.1468321443
C -4.4283055106 0.5341961838 2.1468756477
F -4.3917187471 1.7743677485 2.6947212401
F -3.9535198077 -0.3177422967 3.0879496137
F -5.7226546099 0.2254369571 1.9418951969
C -5.4304717219 -0.1346679919 -0.7904880282
F -1.5907860696 1.9392114119 -3.0313607424
Cl 3.3207091826 1.0462960581 -3.4259596142
H 2.9545602065 -0.6608571267 3.1876824270
H 2.2868571921 -2.1777751878 2.5332729728
H 3.9012876468 -2.1607900917 3.2716669557
H 4.0424233116 -2.2083290681 0.7694115725
H 4.8656682875 0.5021713690 1.9465797229
H 5.4912241427 -0.2053789955 0.4345305577
H 5.8480080384 -0.9769925309 1.9917390766
H 0.7470714416 2.0098006166 -4.0613258118
H 0.3937397039 -0.5242015785 0.1653093289
H -5.3774891947 -0.2865799186 -1.8677579840
H -6.1064875576 0.6920968877 -0.5641976875
H -5.7793983899 -1.0467147630 -0.3024931143
