28
CONF4
C 4.6777604935 1.4002435235 0.1357093036
C 5.5093913124 0.3320381817 -0.1870771643
C 4.9796632114 -0.9416660209 -0.3592062253
C 3.6104878163 -1.1433789446 -0.2266009701
C 2.7509672089 -0.0777695399 0.0753004067
C 3.3135781998 1.1909790194 0.2706629130
C 1.2902182794 -0.1999578991 0.1962223215
N 0.6148855270 -0.9018275247 -0.7332272683
N -0.6962427797 -0.8691579122 -0.6862908193
C -1.2735726778 -0.1329755474 0.2837357838
N -0.5988789618 0.4441327924 1.2962192494
N 0.7129576764 0.4120977384 1.2499042452
C -2.7422576398 -0.0545565575 0.2783186298
C -3.4711344109 -1.2244119280 0.0248088271
C -4.8578919540 -1.2211193728 0.0406583346
C -5.5423904291 -0.0368323171 0.2980385339
C -4.8426087242 1.1425924690 0.5264140207
C -3.4528742703 1.1299603609 0.5147326972
Cl -2.6229732293 2.6593717596 0.7174885979
Cl 3.0181802939 -2.7854875477 -0.3562110269
H 5.0894544844 2.3930743220 0.2793485253
H 6.5783206098 0.4820530151 -0.2968725419
H 5.6238904745 -1.7840592516 -0.5826321688
H 2.6526143811 2.0152517856 0.5163412894
H -2.9241023270 -2.1403663668 -0.1688321827
H -5.4025055200 -2.1403300442 -0.1445369079
H -6.6271473013 -0.0221045663 0.3133541222
H -5.3677901672 2.0742059499 0.7018152867
