45
CONF140
C -5.9755322171 -1.7489517233 1.7026420376
O -5.5283205721 -0.5068514064 1.1215158786
N -4.2052684089 -0.6222678887 0.7564326411
C -3.7354917215 0.4536807616 0.2038382581
C -4.4386154124 1.6815157362 -0.0563015960
C -5.6623556044 2.1984831002 0.3055613213
C -5.7794348555 3.4597895383 -0.3348815465
C -4.6356382218 3.6353146307 -1.0552697284
O -3.8077549951 2.5720462418 -0.9012223344
C -2.2664160017 0.3628974153 -0.1280971577
O -1.4877390733 1.2846071094 0.1063738575
N -1.8709518409 -0.8113417880 -0.6770076730
C -0.4980775487 -1.0673666894 -0.9766641987
C 0.5697406400 -1.0774764302 0.1617998452
N 1.2917590121 -0.0383190532 -0.5717932126
C 0.3608558385 0.0640568685 -1.5992221438
O 0.3230533742 0.7267863022 -2.6064984143
C 2.6407771309 0.2760777984 -0.4476924398
C 3.4627576780 -0.4726850348 0.3196774054
C 3.0199627257 -1.7152532189 1.0393339473
S 1.5847520744 -2.5929386201 0.2968176463
C 4.8857901098 -0.0839970902 0.5874788809
O 5.7708387494 -0.9096204029 -0.2171327552
C 6.5199037218 -1.8471529358 0.4394301072
O 6.4744461633 -2.0451963848 1.6458545438
N 7.2997766345 -2.5140550254 -0.4327860787
C 3.0898495032 1.5087231922 -1.1668888305
O 4.1180098020 1.5935879668 -1.8041466323
O 2.2140615950 2.5135092246 -1.0062992714
H -7.0227007631 -1.5819759830 1.9587180305
H -5.8879153783 -2.5619418281 0.9757892119
H -5.3969626784 -1.9771042493 2.6026488921
H -6.3822041173 1.7325455710 0.9568799223
H -6.6084653690 4.1486179200 -0.2708863108
H -4.2751283937 4.4227537787 -1.6996086096
H -2.5552828251 -1.5339200008 -0.8462413180
H -0.4290843642 -1.9647145363 -1.5989806178
H 0.2201635901 -0.7432734036 1.1427167724
H 3.8394575499 -2.4421794509 1.0430529959
H 2.8011043119 -1.4800071215 2.0892217048
H 5.0955943231 0.9488962836 0.3137778799
H 5.1215640397 -0.2389792715 1.6446313571
H 7.9153992281 -3.2295281295 -0.0857385136
H 7.3000653617 -2.2875075336 -1.4134105724
H 2.5296564907 3.2796841484 -1.5174233617
