38
CONF38
C -6.6626285993 -0.6832765532 0.6716845687
C -5.2324592577 -0.2494998535 0.9613402155
C -4.9040285275 0.9980253450 0.1409813795
O -4.3891064188 0.9903248103 -0.9545165834
O -5.3146326315 2.0969239067 0.7881931651
C -5.1388575644 3.3494554725 0.0731329769
O -4.3862294881 -1.3314794163 0.5793845714
C -3.0531483082 -1.2523318502 0.8817273085
C -2.4579111584 -0.2009450295 1.5815435856
C -1.0870655810 -0.2360477487 1.8367878262
C -0.3385212233 -1.3106406922 1.3955249164
C -0.9188132938 -2.3662676368 0.7046064624
C -2.2797657539 -2.3335553532 0.4452618339
O 1.0249081487 -1.3691966042 1.7335319144
C 1.9291974149 -1.0105601345 0.7979138934
C 3.2914629095 -1.1344770785 1.1372031653
C 4.2425707395 -0.7725564462 0.2097657309
C 3.8125795945 -0.2982489377 -1.0336883436
C 2.4521063600 -0.2055488418 -1.2824860771
N 1.5315666532 -0.5571714744 -0.3774478939
C 4.8289931986 0.1140587712 -2.0497583191
F 4.2764277256 0.3729263127 -3.2539657612
F 5.7717525236 -0.8455145351 -2.2367464684
F 5.5000386957 1.2350066956 -1.6704987531
Cl 3.7588472091 -1.7369915556 2.7034573690
H -6.8939703356 -1.5802540777 1.2509188157
H -6.7826932760 -0.9007305478 -0.3931951249
H -7.3568634133 0.1105883659 0.9567210001
H -5.1153597096 -0.0266767837 2.0293416229
H -4.0786795134 3.5141993473 -0.1313548381
H -5.7006957878 3.3262791734 -0.8632833299
H -5.5283051276 4.1176576292 0.7391098245
H -3.0296224607 0.6476258945 1.9378801729
H -0.3095299815 -3.1999823927 0.3718706814
H -2.7614041705 -3.1425129706 -0.0935636213
H 5.2981335870 -0.8590962892 0.4448605132
H 2.0789712946 0.1605016242 -2.2345004342
H -0.6075307738 0.5736686141 2.3763661943
