46
CONF12
C 4.2662121992 -3.5075803222 -1.4893760398
C 2.8709562704 -3.0019952476 -1.1371339815
C 2.0928619479 -2.3803148203 -2.3568974966
N 1.1667963664 -1.4270839412 -1.7910501868
C 1.6045256603 -0.6553822184 -0.6192663586
S 3.0342877896 -1.5818893335 0.0815686749
C 0.1639870437 -0.8318302746 -0.0279901684
C -0.1191037046 -1.6475294847 -1.3116762129
O -1.0544340168 -2.2637191407 -1.7647687552
N -0.6383827412 0.3192587657 0.2342368165
C -1.1475903093 0.5974415291 1.4663955015
O -0.9337798742 -0.0955955220 2.4574398758
C -2.0026233052 1.8301688769 1.5163541121
C -1.4674720485 3.0303128819 1.9978537618
C -2.2703980983 4.1701126215 2.1010718318
C -3.6057107384 4.0819397642 1.7194192622
C -4.1629565255 2.9009670306 1.2393154537
C -3.3490028052 1.7683319051 1.1394121000
O -3.7684732983 0.5517026952 0.6971134397
C -5.1362586567 0.4282849204 0.2815816265
O -0.1485108135 2.9816687891 2.3274078607
C 0.4593588041 4.1849653614 2.8182288090
C 3.0148459274 -1.6885672447 -3.3486010958
O 3.3617785460 -0.5316792175 -3.2733560026
O 3.4094877320 -2.5361054403 -4.3138150356
C 2.0305798494 -4.1255789992 -0.5305896812
H 4.7496156109 -3.9110378987 -0.5953767575
H 4.1881301535 -4.3145593031 -2.2249868817
H 4.9011646297 -2.7157978823 -1.8955001577
H 1.8962588982 0.3764870207 -0.8288341267
H -0.8683711892 0.9413791214 -0.5282080036
H -1.8728553805 5.1077840379 2.4665680905
H -4.2334608233 4.9640539728 1.7989577587
H -5.2063320098 2.8714890084 0.9541623729
H -5.2520236739 -0.6073295019 -0.0381253519
H -5.3521285644 1.1008706062 -0.5561253001
H -5.8179994176 0.6375930877 1.1134974726
H -0.0242128951 4.5177253889 3.7434671646
H 0.4138091178 4.9807588355 2.0662808566
H 1.4991615802 3.9266064019 3.0188014791
H 4.0314011988 -2.0690970592 -4.8992111972
H 1.9600389155 -4.9565877203 -1.2419445386
H 1.0188631705 -3.7931098810 -0.2832214237
H 2.5012877811 -4.4890238341 0.3863688210
H 0.1619199132 -1.4816679665 0.8523523790
H 1.5382267374 -3.1727912351 -2.8690669938
