55
CONF2
C -0.9242545622 -0.4810713405 0.9957738044
C -1.6548237511 -1.5029416869 1.8733435192
C -3.1592757846 -1.2224539337 1.6108186105
C -3.2209392202 -0.1374771723 0.5093005304
O -3.2273114814 1.1881188897 1.0657202679
C -4.4145237193 -0.2906580454 -0.4232443056
O -4.8739694323 -1.3769119966 -0.7316553636
C -5.0260852668 0.9659692695 -1.0092214246
O -5.9938446262 0.6642800638 -1.9803528211
C -1.8462070360 -0.3112666895 -0.2329881131
C -1.8936390171 -1.5676040594 -1.1146202623
C -1.3606686335 0.8935062143 -1.0388800272
C 0.1171478294 0.7219611105 -1.4288664377
C 1.0355104670 0.4579870644 -0.2228482725
C 0.5347281449 -0.7294144798 0.6287248407
C 1.3985645773 -0.8814658365 1.8785324380
C 2.8730033363 -1.0506466900 1.5063254678
C 3.3638378808 0.0596762918 0.6256473242
C 4.4955690833 0.7240685461 0.9348788223
C 5.1417896958 1.6995266355 0.0545813314
O 6.1668006900 2.2823407172 0.3779742557
C 4.5010750556 1.8784351735 -1.3040597325
C 2.9876463407 1.7026172258 -1.2325033120
C 2.5467579422 0.3544055898 -0.6236440642
C 2.7919769313 -0.7831872052 -1.6405085226
H -0.9519171768 0.4840618031 1.5219104554
H -1.3943797811 -2.5255805040 1.5776615440
H -1.3983692095 -1.3986350139 2.9306887580
H -3.6780418573 -0.8675177876 2.5083355298
H -3.6895739261 -2.1142776600 1.2703034987
H -3.8460504712 1.1946840764 1.8044139088
H -4.2225413531 1.5919021893 -1.4267130938
H -5.4599375147 1.5531528459 -0.1827280338
H -6.0939536446 -0.3024218204 -1.9583827297
H -0.8959653898 -1.8408277071 -1.4623404908
H -2.3128504767 -2.4301544882 -0.5929569563
H -2.5136562561 -1.3940137951 -1.9989158447
H -1.9573014166 1.0241051173 -1.9505619457
H -1.4755107260 1.8007617812 -0.4367733172
H 0.4389333312 1.6289531673 -1.9492062561
H 0.2093231378 -0.0968359741 -2.1510887667
H 0.9658775165 1.3409070461 0.4354450896
H 0.6087115175 -1.6603674498 0.0480417785
H 1.0685359204 -1.7419881121 2.4713709195
H 1.2796906034 0.0103245371 2.5102375138
H 2.9861398497 -2.0009276427 0.9633301420
H 3.5012805334 -1.1211188634 2.3993570522
H 5.0314754812 0.4993312112 1.8544723015
H 4.9501246688 1.1322032611 -1.9742853485
H 4.7779049685 2.8611307417 -1.6954954723
H 2.5600904403 1.8135543560 -2.2338172607
H 2.5732078819 2.5116349203 -0.6157035239
H 3.8638288769 -0.9325402026 -1.7988964726
H 2.3403160695 -0.5422671571 -2.6067109370
H 2.3757421651 -1.7350271244 -1.3010865941
