63
CONF74
C 1.0872172664 -0.5045090414 1.7588974996
C 0.0002605412 -1.5307944886 1.4568140221
N -0.0006659702 -1.8947029610 0.0349851668
C 1.2829637515 -2.5107390900 -0.3185019251
C 2.4292623805 -1.5252426214 -0.1079936256
C 2.4503220793 -1.0604590396 1.3483752019
N 3.5353979924 -0.1101779865 1.6091818417
C 4.6150577175 -0.3269311362 2.4589266693
C 4.9635823399 -1.4066753336 3.2578695537
C 6.1391353421 -1.3019785968 4.0079980551
C 6.9361318278 -0.1562061041 3.9578071612
C 6.5868530807 0.9323349788 3.1535263016
C 5.4221084834 0.8274239867 2.4111700879
N 4.8059164627 1.7010910320 1.5352861636
C 3.6413657379 1.1494420691 1.0244336097
O 2.8705821440 1.6725264593 0.2211326942
C -1.1297046914 -2.7803832365 -0.2849386618
C -2.4410995222 -2.0085586078 -0.4317145403
C -2.4467840860 -1.1170648274 -1.6761268236
C -3.4941033186 0.0068278363 -1.6236554172
C -3.2619981187 1.0166917240 -0.5095710423
C -4.3464672517 1.7663757840 -0.0411342714
C -4.1880640591 2.7409915303 0.9389336720
C -2.9173622650 2.9528207348 1.4474316512
C -1.8159382969 2.2337093557 1.0213855970
C -2.0002269853 1.2629178794 0.0379917106
F -2.7487017213 3.9016786335 2.4086886340
C -3.5794666823 0.7092661482 -2.9689005300
C -4.6793695809 0.5110543551 -3.8057917611
C -4.7542225283 1.1188187173 -5.0583170933
C -3.7036502697 1.9260855135 -5.4543323013
C -2.5924140326 2.1513890251 -4.6582946161
C -2.5419959837 1.5366661922 -3.4111196647
F -3.7654624610 2.5282662958 -6.6736779303
H 1.0873878244 -0.2699536008 2.8293236838
H 0.8871155802 0.4191926035 1.2070893969
H -0.9740046111 -1.1087117795 1.7231041382
H 0.1530925200 -2.4302970030 2.0892914656
H 1.4682423545 -3.4266625225 0.2810571364
H 1.2484862217 -2.8122750640 -1.3713205945
H 2.2932311827 -0.6603948801 -0.7652452317
H 3.3823598467 -2.0035204558 -0.3599168248
H 2.6615947607 -1.9326670295 1.9780365187
H 4.3546323935 -2.3024260973 3.3064675259
H 6.4344986353 -2.1322492069 4.6411071048
H 7.8426877259 -0.1066768990 4.5519859907
H 7.2008056763 1.8256006976 3.1090212207
H 5.1298786350 2.6200696708 1.2785077401
H -1.2385537630 -3.5774097056 0.4756487903
H -0.9082570556 -3.2792844419 -1.2374000041
H -3.2703991480 -2.7242294115 -0.4870792381
H -2.6189737820 -1.4055736111 0.4659269706
H -1.4514300923 -0.6828130517 -1.8258676898
H -2.6494861214 -1.7294961693 -2.5630220393
H -4.4730947858 -0.4552382205 -1.4410791094
H -5.3359299931 1.5874897836 -0.4539317086
H -5.0275502477 3.3223022401 1.3050874590
H -0.8380529598 2.4238001295 1.4514860247
H -1.1408486714 0.6846605934 -0.2866803202
H -5.4943796195 -0.1279090345 -3.4774856196
H -5.6076550091 0.9718173135 -5.7115567551
H -1.7923708966 2.7952234647 -5.0078602696
H -1.6814824886 1.7107139962 -2.7714599566
