54
CONF429
C 3.3525756664 -3.0145499364 3.5037787899
C 3.9351258037 -1.6914789669 3.9947948356
C 2.8373968160 -0.7250906328 4.3550324550
C 1.5211373905 -0.9422739199 3.9221841319
C 0.4966398567 -0.0551025748 4.2625367339
C 0.7661518103 1.0667735211 5.0362112428
C 2.0723980154 1.2742841156 5.4490236422
C 3.1003222744 0.4093001753 5.1286841595
F 2.3545055590 2.3740602375 6.2055800924
O 1.1471048009 -2.0332068102 3.1771513478
C 2.2135675237 -2.7655054291 2.5264532501
C 2.6305889688 -2.0134098080 1.2517642484
C 1.4518948298 -1.8125466323 0.3102601116
N 1.8571821072 -1.0160832639 -0.8496770671
C 0.7707287618 -0.7958513265 -1.8125938919
C -0.1132909187 0.3591374622 -1.3226870001
C -1.0328300697 0.8842341349 -2.4178212391
C -1.9217833401 2.0301223428 -1.9714514621
C -2.7806002342 2.4868409411 -3.1480062751
C -3.4185811053 1.3034829509 -3.8276837523
C -2.9157237740 0.0109433791 -3.6229902929
O -1.8351199515 -0.2510623191 -2.8218121254
C -3.5181087267 -1.0980866513 -4.2224232632
C -4.6261737494 -0.9370478456 -5.0449523573
C -5.1046840708 0.3470103022 -5.2488647632
C -4.5315284052 1.4570633450 -4.6594755707
F -6.1893348890 0.5213525156 -6.0582642352
O 0.7171790362 1.4439052704 -0.9057363534
O 3.7044480661 -2.7033163891 0.5985476880
H 2.9492985589 -3.5852529482 4.3479291620
H 4.1203502215 -3.6266143003 3.0245984938
H 4.5789480313 -1.8559424435 4.8649046330
H 4.5738105244 -1.2466522352 3.2203016094
H -0.5109964622 -0.2554008420 3.9128939671
H -0.0164240839 1.7660142186 5.3094718391
H 4.1076160295 0.6067885552 5.4835944483
H 1.7495803909 -3.7163582346 2.2370650435
H 3.0396431884 -1.0310341497 1.5177922065
H 1.0489291309 -2.8024479613 0.0201739450
H 0.6591258456 -1.2843705381 0.8512027363
H 0.1535248400 -1.6924960496 -1.9764001932
H 1.2187829647 -0.5077644965 -2.7717427972
H -0.7433968940 0.0209163781 -0.4818576387
H -2.5530697935 1.6840147949 -1.1429184593
H -1.2994062714 2.8496736725 -1.6043513924
H -3.5579651623 3.1836149776 -2.8184122314
H -2.1558873809 3.0297190696 -3.8696783950
H -3.1070201546 -2.0852959092 -4.0376420747
H -5.1052363129 -1.7861874082 -5.5198251893
H -4.9505773857 2.4434002176 -4.8356698246
H 3.3776167501 -3.5749921164 0.3325650164
H -0.4216887894 1.1980581063 -3.2798935975
H 1.5333246421 1.0014612397 -0.6002678834
H 2.6323281763 -1.4786238001 -1.3113326357
