24
CONF9
C -1.7758505280 -1.7486322135 1.9904785210
O -1.6984032214 -0.3051434755 1.8583008341
P -1.6193560577 0.3735544095 0.4126581692
S -1.5207842747 2.2861006368 0.4351408169
O -2.8180542496 -0.3652713377 -0.3517986588
C -3.1026869809 -0.0065501079 -1.7266062819
O -0.3581901074 -0.3984400777 -0.3336869569
C 0.9317611961 0.0624230684 -0.2564733765
C 1.5429069853 0.3058662422 0.9670740137
C 2.8665142094 0.7253264741 1.0189710940
C 3.5893698683 0.8984880092 -0.1641990048
C 2.9795773478 0.6532477690 -1.3897013604
C 1.6553218031 0.2424685225 -1.4367406711
Cl 0.8996901916 -0.0489263023 -2.9772263280
Cl 5.2479165047 1.4165257487 -0.1426468085
Cl 3.5915639752 1.0208889028 2.5693348846
H -0.9698293572 -2.2298733054 1.4281284349
H -2.7460978420 -2.1057920361 1.6375571515
H -1.6627750117 -1.9524059741 3.0554795298
H -3.9874722179 -0.5791222220 -2.0050919701
H -3.3049845333 1.0658919959 -1.7993062611
H -2.2578238071 -0.2772304518 -2.3664661242
H 0.9796775986 0.1761752709 1.8839229456
H 3.5380088089 0.7904305538 -2.3071026930
