47
CONF70
C 3.5230500678 -4.4124678353 2.3845616558
C 3.0944524157 -3.9186075885 0.9968701260
C 1.9870594372 -4.8093400178 0.4166823327
C 2.6600913943 -2.4682209172 1.0253645790
C 3.3048899779 -1.5128239882 0.2381730189
C 2.8958406135 -0.1796488483 0.2259928213
C 1.8131501681 0.1843429775 1.0100429588
C 1.1602606770 -0.7302377004 1.8244483347
C 1.5903522325 -2.0506370525 1.8275383938
O 1.3223063753 1.5041483072 1.0313766142
P 1.0973846010 2.3405073970 -0.3179213723
O 2.2568933852 2.9984146701 -0.9537765747
O -0.0279821047 3.3309749750 0.2604915732
C -0.3765765985 4.4778404847 -0.4815172971
C -1.3349467292 4.3707694771 -1.4790679370
C -1.7079833088 5.5232688928 -2.1675554154
C -1.1276648398 6.7500741806 -1.8525426062
C -0.1692668457 6.8296493822 -0.8438012311
C 0.2161141161 5.6864763407 -0.1478822370
O 0.4022111488 1.3399439166 -1.3703979102
C -0.4795281160 0.3007343179 -1.0260281161
C -1.5660007691 0.5057409422 -0.1866368325
C -2.3932026713 -0.5782030299 0.1036141543
C -2.1388489058 -1.8320100715 -0.4454482665
C -1.0524703101 -2.0062363020 -1.3017910451
C -0.2137511305 -0.9367684944 -1.5976846382
H 2.6791619490 -4.4010619813 3.0828449982
H 4.3178936835 -3.7838569552 2.7981233112
H 3.8928059189 -5.4412157473 2.3224882599
H 3.9641394187 -3.9819762620 0.3311524014
H 2.3296789189 -5.8470655809 0.3472248119
H 1.0977633455 -4.7880873831 1.0563222547
H 1.6956076491 -4.4725235877 -0.5833790157
H 4.1448242595 -1.8103078420 -0.3834335027
H 3.4067880478 0.5531051298 -0.3902305188
H 0.3156676884 -0.4091136450 2.4246084331
H 1.0692934096 -2.7668331738 2.4559297339
H -1.7803381430 3.4076246776 -1.7055338298
H -2.4567628982 5.4578088139 -2.9502752859
H -1.4235062058 7.6442666729 -2.3912085460
H 0.2836556567 7.7839074647 -0.5947763470
H 0.9609243346 5.7241220808 0.6397308417
H -1.7627862105 1.4829544145 0.2386356292
H -3.2422391000 -0.4335760800 0.7639964095
H -2.7869724854 -2.6700355401 -0.2114767017
H -0.8498275734 -2.9791719255 -1.7379919420
H 0.6466738994 -1.0530296376 -2.2478557572
