44
CONF221
C -2.7392113949 -3.7804223049 -1.5244448707
S -3.3021015466 -2.1498708324 -2.0454113201
O -4.5372985086 -1.8048605178 -1.3054050313
O -3.3507343384 -2.1335577976 -3.5214104294
C -1.9418082908 -1.0361061442 -1.5404902963
C -1.6630353817 -0.7300511431 -0.1986976978
C -0.5224080728 0.0548276996 0.0266034256
C 0.2597668351 0.5646968836 -1.0093556163
C -0.1022042897 0.2860818047 -2.3268300972
C -1.1822745500 -0.5379522195 -2.5947366491
C 1.4760847828 1.4218653332 -0.8092443271
O 1.5717818547 2.4800724846 -1.3954532008
C 2.6290580392 0.8758946171 0.0020081253
C 3.1081417606 1.8221884978 1.1228177981
O 2.5412718216 2.8624431131 1.3706385956
C 4.3289552846 1.3291808312 1.8511443383
C 5.4601017408 1.0453404946 0.8518637943
C 5.0359631257 0.0226540356 -0.2113372087
C 3.7972306223 0.4763573842 -0.9342428232
O 3.6873923591 0.5194026595 -2.1397266558
Cl -0.0950360503 0.4920159198 1.6710253634
C -2.5179018894 -1.1544588819 0.9773656580
O -3.1338629732 -0.0365581635 1.6349960492
C -4.1736566883 0.6034488329 0.9113998023
C -3.8043851497 2.0520699470 0.6580466647
F -3.5074847877 2.7121881940 1.8013479929
F -4.8407344013 2.6997598931 0.0717896888
F -2.7327889120 2.1843367190 -0.1605178414
H -1.7962124831 -3.9906641195 -2.0336975442
H -2.6177091366 -3.7944173415 -0.4394409814
H -3.5202308048 -4.4793918463 -1.8373760717
H 0.4901600906 0.6990440718 -3.1362363484
H -1.4402670751 -0.7901387452 -3.6158191121
H 2.3669403949 -0.0637617035 0.5097261223
H 4.6221440044 2.0778658312 2.5899095865
H 4.0643809185 0.3997027729 2.3742983619
H 6.3294218436 0.6614120216 1.3913547596
H 5.7616288021 1.9793681957 0.3641963762
H 4.8026221004 -0.9335689248 0.2782862992
H 5.8244034044 -0.1476617654 -0.9477173181
H -3.2813238963 -1.8748560778 0.6802840130
H -1.8832382680 -1.6141012152 1.7392039671
H -4.3801335091 0.1303238333 -0.0542329045
H -5.0914062916 0.5998581596 1.5119948812
