41
CONF9
C -4.3119901275 1.8983180859 -1.3366749122
C -4.0458204511 1.9190562838 0.1492327423
O -3.8331580798 0.5388683128 0.5636227460
C -3.5052840226 0.3688721882 1.8503787975
O -3.4273163125 1.2520478274 2.6739041399
C -3.2951932424 -1.1051625571 2.2014562918
C -4.6105505542 -1.7005873984 2.6819528631
O -2.8631556476 -1.8951652222 1.0976973106
C -1.6408269726 -1.6197154929 0.5510547460
C -0.7506569667 -0.6595848087 1.0283076543
C 0.4786996859 -0.4569521226 0.3970574994
C 0.7969267693 -1.2267964404 -0.7095299778
C -0.0833305959 -2.1911765496 -1.1948271733
C -1.2987717580 -2.3859142038 -0.5674171735
O 1.9852576351 -1.1479259833 -1.4506943071
C 2.9665298439 -0.3032994864 -1.2048941005
N 3.1222978192 0.6179989412 -0.3096970134
C 4.3820424633 1.1443718007 -0.6032195387
C 5.1151786112 2.1589832851 -0.0021033068
C 6.3669782760 2.4585544808 -0.5359125048
C 6.8579053521 1.7552211171 -1.6389703141
C 6.1456388696 0.7314148788 -2.2644475727
C 4.9147454481 0.4683715468 -1.7054408080
O 3.9949944969 -0.4770283566 -2.1020917031
Cl 8.4400928429 2.1734922922 -2.2705832776
H -3.4617150241 1.4730015258 -1.8762467661
H -4.4735262727 2.9198113685 -1.6931610148
H -5.2023513723 1.3071822850 -1.5664794193
H -4.8866454775 2.3260781012 0.7202829999
H -3.1508693288 2.4959702455 0.4035604623
H -2.5517012830 -1.1322235577 3.0095607689
H -4.9847066061 -1.1277321743 3.5336697945
H -5.3491027463 -1.6758817827 1.8764931515
H -4.4538979370 -2.7374823583 2.9881756627
H -0.9842997728 -0.0477187147 1.8916007715
H 1.1640897352 0.2895329391 0.7701957093
H 0.1972759087 -2.7771330705 -2.0628034719
H -2.0008158634 -3.1281661715 -0.9298404886
H 4.7280746275 2.6999687901 0.8535000121
H 6.9730396637 3.2426216089 -0.0983710705
H 6.5359186838 0.1930677332 -3.1182980026
