70
CONF30
C -0.4949093279 -1.7332366020 1.8707366626
C -1.5217606876 -2.5347114297 2.6975750756
C -1.4190305524 -2.1110402451 4.1255191595
C -1.6798329688 -2.7003245279 5.3342388880
N -1.4263810112 -1.7822647080 6.3520137173
C -0.9894360502 -0.5953519795 5.8051950832
C -0.5907786797 0.6241446405 6.3521755593
C -0.1883928785 1.6078802243 5.4549013797
C -0.1695339024 1.4060890196 4.0595037442
C -0.5729640812 0.1946998243 3.5111964606
C -0.9820494022 -0.7895458194 4.4101980412
C -0.5991647273 -0.1850342718 2.0437674391
C 0.5345785295 0.4870709191 1.2567020035
C 0.5399903760 0.0341089358 -0.2037007244
C 0.6241124897 -1.5169911787 -0.2468835636
N -0.4853427651 -2.1494225442 0.4604333170
C -1.7433464863 -2.0113601939 -0.2724712895
C -1.8685110183 -2.9660197844 -1.4282291764
C -1.0784515857 -4.0062121045 -1.6750421912
C 1.7163737230 0.6164385549 -0.9571112779
O 2.7344666777 0.9327588985 -0.3375904388
N 1.6203768770 0.7181671833 -2.3414048900
C 0.4002561061 0.3560495748 -3.0966848090
C -0.4057960698 1.5787812674 -3.5399909892
C -1.1219453562 2.3108764238 -2.4099884016
N -2.1064407866 1.4862493302 -1.6975071601
C -3.2287832220 1.0994261679 -2.5482292795
C -2.5918031900 2.1898877675 -0.5126782783
C 2.6969246361 1.1635337176 -3.2065708296
O 2.5362005478 1.1325137372 -4.4207913511
N 3.8152447283 1.6148718528 -2.6044686573
C 4.9774751026 1.9784522099 -3.4055879047
C 5.7901115206 0.7656536143 -3.8537034015
H 0.4963623339 -2.0116514648 2.2639249060
H -2.5403624490 -2.3330963934 2.3408405422
H -1.3353700958 -3.6042530813 2.5531520213
H -2.0271860703 -3.6953931829 5.5734136971
H -1.5172002010 -1.9759300445 7.3330476605
H -0.5843017115 0.8074004755 7.4217403961
H 0.1329647363 2.5686711075 5.8445164393
H 0.1751283109 2.2151580397 3.4241478183
H -1.5670456352 0.1331360504 1.6205899543
H 0.4404503219 1.5778034852 1.3025693069
H 1.4935331529 0.2385697838 1.7259379376
H -0.3988483685 0.3468147850 -0.6700604041
H 0.6432866653 -1.8825141463 -1.2787583946
H 1.5658588926 -1.8221557296 0.2298500351
H -2.5824922807 -2.2074749310 0.4054094347
H -1.9162865782 -0.9858004646 -0.6541709219
H -2.7041774254 -2.7546846902 -2.0959231659
H -0.2431048164 -4.2389659505 -1.0217190787
H -1.2522325863 -4.6502943064 -2.5304107728
H -0.2171986528 -0.3086285000 -2.4943643108
H 0.7249226780 -0.1968515640 -3.9798969674
H 0.2670598306 2.2804005580 -4.0427438940
H -1.1228959957 1.2561265444 -4.3031904408
H -1.5933798383 3.2290774961 -2.8152870886
H -0.3768150998 2.6435036304 -1.6736070498
H -2.8900498603 0.4678518240 -3.3740551401
H -3.7626936385 1.9716499391 -2.9740635103
H -3.9450297183 0.5171514543 -1.9591894460
H -3.2898700140 1.5513326188 0.0396654564
H -1.7525351704 2.4277732246 0.1504646101
H -3.1127394407 3.1355476317 -0.7583766783
H 3.8667201709 1.5050212910 -1.5948334171
H 4.6301603828 2.5389302030 -4.2789030881
H 5.5927911083 2.6499336434 -2.7971935259
H 5.1728419199 0.1066357646 -4.4697966763
H 6.1548777906 0.1993291437 -2.9912789981
H 6.6533992735 1.0837369583 -4.4469684383
