49
CONF39
C -5.5036313117 -1.0983604953 -1.8754927176
C -4.2091157031 -1.5422639025 -1.1878858641
C -3.2875881681 -2.2451740032 -2.1897200842
C -3.4960568207 -0.3437323119 -0.5605022428
C -4.2410306248 0.4246847893 0.5698047852
C -4.2773807465 -0.6452253638 1.7031867838
C -2.9102961549 -1.3712806601 1.5450930773
C -2.2546947189 -0.6461029401 0.3283881707
C -1.9407305448 0.7465558948 0.8095474317
C -3.1699814646 1.4067743884 0.9740220016
C -3.2410813618 2.6772552211 1.5228343928
C -2.0469489901 3.3063348746 1.8928347273
C -0.8218014299 2.6694870244 1.7196353843
C -0.7605256090 1.3760843229 1.1803645399
N 0.4989469115 0.7350351559 1.0524437913
C 0.9782626418 0.2172721824 -0.1225026077
O 0.3508812189 0.2453548716 -1.1836952446
C 2.3106041452 -0.3993867732 -0.0369892369
C 3.0074380428 -0.8654506659 1.0726993020
N 4.1713240180 -1.3692893436 0.6167016941
N 4.2958937279 -1.2676421844 -0.7181177057
C 3.1690261623 -0.6840243305 -1.1245943550
C 2.9274793831 -0.4113229455 -2.5707962577
F 4.1199921018 -0.2406640277 -3.2349107589
F 2.3128549863 -1.5048859475 -3.1632458319
C 5.2247841779 -2.0069036707 1.3956962177
H -6.2078941027 -0.6544395601 -1.1651906765
H -5.9990093518 -1.9496339607 -2.3540220914
H -5.2883952300 -0.3536736907 -2.6516050938
H -4.4709530659 -2.2636299767 -0.4037719587
H -2.3793094493 -2.6221863968 -1.7098187880
H -3.7988342712 -3.0927952690 -2.6578827245
H -2.9865463883 -1.5511728629 -2.9839394039
H -3.2177482896 0.3525591319 -1.3643195181
H -5.2101487827 0.8635181662 0.3277168956
H -5.1161513578 -1.3317034573 1.5525547301
H -4.3986907062 -0.1787395153 2.6843297818
H -3.0433629579 -2.4347593955 1.3248881470
H -4.1954605303 3.1761236972 1.6640167416
H -2.0690093873 4.3085131711 2.3097764291
H 2.7537555013 -0.8925101993 2.1230431446
H 2.2946234474 0.4610664151 -2.7478969459
H 6.1769158512 -1.5118518988 1.1924852177
H 5.2963086666 -3.0639332081 1.1266427816
H 4.9772118267 -1.9119675757 2.4532726630
H -2.2834491888 -1.2905146987 2.4370886628
H -1.4318195773 -1.1869061356 -0.1344959788
H 1.1701332609 0.9141092571 1.7857574313
H 0.1000624580 3.1752263189 1.9925016286
