45
CONF2
O -0.6280376809 -0.4210942492 -2.9091420788
C -1.9674388074 -0.8853589641 -2.8255790353
C -2.5630203968 -0.7618114506 -1.4388840908
O -1.7780588393 -1.5698644302 -0.5121085351
C -1.5687351703 -0.8669095536 0.6987748229
C -1.7342801293 -1.8222244042 1.8733774046
O -1.5295299325 -1.1244139156 3.0949417468
O -0.2714240368 -0.2546799289 0.7570500774
C 0.8284754643 -1.0321709558 0.3540935260
O 1.3632167666 -0.5361499453 -0.8668983135
C 1.7868489516 0.8535138935 -0.7977158260
C 2.1787937175 1.3004814341 -2.2014783549
O 1.1007459160 1.8431476045 -2.9418774519
C 2.9230998943 0.9593608872 0.2224657847
O 3.4076548787 2.2978044422 0.3678283910
C 2.4436453234 0.4337571242 1.5714441256
O 3.4961647683 0.3833205829 2.5325513566
C 1.9136583234 -0.9799240105 1.4288457837
O 1.3614343100 -1.4647819474 2.6544607473
C -2.5810314059 0.2905137929 0.6690427576
O -2.2632194657 1.4166655441 1.4519772480
C -2.5980007632 0.6299033325 -0.8169451465
O -3.7646668242 1.3025388769 -1.2604066490
H -0.1095862913 -0.8081179804 -2.1829104422
H -2.5668201414 -0.2812171090 -3.5152102669
H -2.0315217927 -1.9366623554 -3.1446893702
H -3.5907067438 -1.1553733802 -1.4659743671
H -1.0464484504 -2.6742102791 1.7681673997
H -2.7579893790 -2.2093828570 1.8739855983
H -0.5682816111 -0.9976040378 3.1601129882
H 0.5384023281 -2.0680296511 0.1457639324
H 0.9373502648 1.4693168487 -0.4618020148
H 2.6552362764 0.4508738272 -2.7174413139
H 2.9221401783 2.0985525831 -2.1090221434
H 0.4378731415 1.1458962921 -3.0825120900
H 3.7853909605 0.3697457887 -0.1149659805
H 2.6467647799 2.8768776798 0.5107634892
H 1.6242741514 1.0814595366 1.9304097052
H 3.9271931102 1.2477060921 2.5245164108
H 2.7375375915 -1.6340691660 1.1040559605
H 2.0347171649 -1.3279378201 3.3340203743
H -3.5695876865 -0.1207634962 0.9371731672
H -2.1302786889 1.0978739568 2.3557004067
H -1.6858530391 1.1921174745 -1.0682657129
H -3.7460999689 2.1913244095 -0.8876938253
