31
CONF50
C -3.0242618949 -2.3257690340 2.3743764262
C -2.7989145274 -3.2252583645 1.3203923630
C -2.1962376447 -2.8024679479 0.1502721458
C -1.8072788828 -1.4609107514 0.0249159757
C -2.0318539429 -0.5596226024 1.0821098612
C -2.6449373099 -0.9995023418 2.2599894209
C -1.6022844896 0.8155641270 0.9131267893
N -0.9950561497 1.0420260029 -0.3307364340
N -0.8184775041 0.1197993901 -1.3270690777
N -1.2081283088 -1.0693468119 -1.1661645113
C -0.4318338146 2.3417705118 -0.6210572551
S 1.0996123943 2.7394001737 0.3675007321
P 2.4968910619 1.3822018739 -0.4111857896
S 4.2833778071 1.7983728175 0.2458774544
O 1.8610860502 -0.0318587801 0.0007275069
C 2.4657704859 -1.2689232554 -0.4836796393
O 2.3088458290 1.3360606003 -2.0101368052
C 2.8452013406 2.4040904999 -2.8393450403
O -1.7225623084 1.7242972964 1.7267048022
H -3.4997735585 -2.6748506024 3.2847801083
H -3.1022861586 -4.2615693568 1.4259950714
H -2.0160995197 -3.4826347644 -0.6753628571
H -2.8123495244 -0.2950101624 3.0670836285
H -0.2014026483 2.3861801640 -1.6856362318
H -1.1352834406 3.1292427006 -0.3408265486
H 2.3347682289 -1.3471181676 -1.5652462266
H 1.9290598987 -2.0705402084 0.0228508475
H 3.5263287257 -1.2975973884 -0.2192189151
H 2.5983185568 2.1294682050 -3.8645010168
H 2.3714062463 3.3549564338 -2.5782814626
H 3.9283557008 2.4695494307 -2.7107554461
