54
CONF132
C 4.0811065839 -1.2121714196 -1.1027553965
C 4.3182224726 -0.2637061897 0.0740811289
C 3.2307696551 0.7800379154 0.1727550547
C 2.0658850463 0.6815924389 -0.5961613055
C 1.0583646584 1.6414743311 -0.5116872365
C 1.1889299877 2.7203210514 0.3506839108
C 2.3422394097 2.8089802416 1.1151223645
C 3.3534255256 1.8697243673 1.0390582955
F 2.4844853667 3.8515626661 1.9691680419
O 1.8495490648 -0.3582003645 -1.4722498841
C 2.6039194683 -1.5507665429 -1.1747834732
C 2.2497310362 -2.6100470535 -2.2273264599
C 0.7693083717 -2.5975126181 -2.6063183410
N -0.0597833404 -2.6155703550 -1.3948937552
C -1.4930654492 -2.7668473659 -1.6756279081
C -2.2690348540 -2.7379109121 -0.3601149682
C -2.1231879622 -1.4078056318 0.3917492446
C -3.0270876473 -1.2935975546 1.6056510490
C -2.7243157425 0.0218799150 2.3202551558
C -2.6625862266 1.1601620269 1.3327419339
C -2.5379465165 0.9049401659 -0.0383575467
O -2.4162325737 -0.3605766672 -0.5544569520
C -2.5391982022 1.9485486512 -0.9652946917
C -2.6340327564 3.2659183758 -0.5393887216
C -2.7286303695 3.5104369892 0.8220791635
C -2.7519397023 2.4894570896 1.7523824128
F -2.8099765583 4.7930555969 1.2528925726
O -1.8462458115 -3.7944784294 0.4993294721
O 2.6479200293 -3.8840130499 -1.7193287397
H 4.6645330226 -2.1310993400 -0.9946478313
H 4.3672818708 -0.7360746854 -2.0487313941
H 4.3476143344 -0.8386138672 1.0093810846
H 5.2930362196 0.2281731120 -0.0158188892
H 0.1678523554 1.5247328267 -1.1192697133
H 0.4098905827 3.4692886014 0.4379750179
H 4.2401556939 1.9875593756 1.6543319479
H 2.2694805635 -1.9279208892 -0.1925582759
H 2.8474136826 -2.4441638653 -3.1321456240
H 0.5547179630 -1.7259138407 -3.2456173890
H 0.5682521599 -3.5019335958 -3.1934270334
H 0.0653349294 -1.7016675828 -0.9663381215
H -1.6577338454 -3.7432836093 -2.1481884883
H -1.8818589751 -1.9901755332 -2.3530887583
H -3.3334633723 -2.9013270927 -0.5730865701
H -1.0763019297 -1.2923756687 0.7250423413
H -2.8613474629 -2.1528070725 2.2602062038
H -1.7654873180 -0.0577784155 2.8501542187
H -2.4602669346 1.7094040583 -2.0206883213
H -2.6341626669 4.0911727540 -1.2422022552
H -2.8474940306 2.7283167236 2.8070307207
H -0.8904427311 -3.8702956434 0.3589309548
H -4.0705885314 -1.3173109971 1.2668992506
H -3.4834237894 0.2365682389 3.0800883836
H 1.9631257142 -4.1397528075 -1.0854716002
