43
CONF10
C -4.0632381385 -1.7594557599 0.2904588810
N -2.6361858159 -1.9045425254 -0.0223236864
C -1.7967722461 -1.9050112289 1.1984983971
C -1.7516750062 -0.4236716550 1.6613676793
C -1.9623850921 0.3779064766 0.3521438316
C -2.1085764709 -0.7186198002 -0.7347790059
C -0.7707925692 -1.1579242250 -1.3579154046
C 0.2442385403 -1.6472744551 -0.3156560439
C -0.4215392647 -2.4509876295 0.8011591760
O 0.8861940373 -0.4492378340 0.2331141338
C 2.1266034431 -0.5941476772 0.7312775576
O 2.7292918451 -1.6533276752 0.7545794883
C 2.6721612999 0.6858954464 1.2524094879
C 1.9603453166 1.8880402254 1.1658890101
C 2.5134777095 3.0592478273 1.6709800084
C 3.7744537600 3.0386755786 2.2645186454
C 4.4860628951 1.8426785221 2.3517908049
C 3.9384243705 0.6699192980 1.8474101801
C -0.1031666608 -0.1703533689 -2.2934626837
O 1.0086978699 -0.3294539997 -2.7587955018
O -0.8842586190 0.8809039191 -2.5805585751
C -0.3207181413 1.8515352228 -3.5006195625
H -4.3061004444 -0.8659837872 0.8892859013
H -4.6320684671 -1.7072534297 -0.6436297450
H -4.3991289704 -2.6413323237 0.8456187775
H -2.2373542484 -2.5648337651 1.9530945821
H -2.5564526540 -0.2257777878 2.3747147888
H -0.8075040559 -0.1816017995 2.1549855362
H -2.8774073306 0.9745195569 0.3997298631
H -1.1404541337 1.0608255883 0.1350211405
H -2.7962497030 -0.4309598977 -1.5342210658
H -0.9935277203 -2.0323322909 -1.9865415050
H 1.0240326050 -2.2370189141 -0.8014505533
H -0.5447082936 -3.4795699167 0.4438400611
H 0.2495571750 -2.4824228335 1.6655900098
H 0.9807525349 1.9064873747 0.7033036726
H 1.9599247049 3.9901384717 1.6015739768
H 4.2030548064 3.9546631690 2.6591114740
H 5.4677963343 1.8258606460 2.8140052343
H 4.4818286958 -0.2664995323 1.9101885226
H -1.0871967013 2.6165777495 -3.6153311588
H 0.5920609212 2.2792434440 -3.0794499150
H -0.1014974083 1.3764756118 -4.4594001079
