46
CONF158
C 5.9980690777 4.7337404710 0.3235474758
C 4.7080655358 3.9720542359 0.5087785362
O 4.9856565808 2.5853509027 0.1453283741
C 3.9922476419 1.7001516652 0.2234673701
N 4.3398148684 0.4648801141 -0.1284234244
C 3.3369815387 -0.4328521038 -0.0518053446
N 2.0738715739 -0.1420771919 0.3460335500
C 1.8744068835 1.1328937696 0.6667134221
N 2.7845333916 2.1148027334 0.6311490157
N 0.6146429283 1.5306534394 1.0796994282
C -0.5747195190 0.8128708609 1.2030069283
O -1.6141027651 1.3789650949 1.5001110292
N -0.4640059133 -0.5420179317 0.9665467869
S -1.8040793230 -1.5764838891 0.9217341024
O -1.2289802405 -2.8613068544 0.5021695283
O -2.5331534505 -1.4710302292 2.1885631220
C -2.8292782585 -0.8911583401 -0.3958694182
C -2.2063682500 -0.2382613702 -1.4537531486
C -2.9844547773 0.3478949905 -2.4463581076
C -4.3727088116 0.2982793750 -2.3649943723
C -4.9870041184 -0.3595889909 -1.3058484835
C -4.2228057139 -0.9818029533 -0.3181619906
C -4.9543048279 -1.7375756077 0.7440781665
O -5.8553857811 -1.2714220996 1.4071896228
O -4.5304938770 -3.0063718065 0.8039612680
C -5.1238570858 -3.8140971272 1.8541760946
N 3.5983143902 -1.7004062470 -0.3910881641
C 2.6083032477 -2.7673887374 -0.3447500816
H 6.7844029240 4.3355112495 0.9706912586
H 6.3350003747 4.6862366063 -0.7156450073
H 5.8330595548 5.7827184069 0.5856700527
H 4.3610978608 3.9989262783 1.5459263474
H 3.9118922518 4.3506023757 -0.1390459864
H 0.5169263487 2.5171423300 1.2837220467
H 0.4478468342 -0.8865686533 0.6135608666
H -1.1247915620 -0.1695535453 -1.5006798531
H -2.5003986568 0.8566920396 -3.2728123226
H -4.9804676721 0.7700208569 -3.1296063040
H -6.0686839549 -0.4147621567 -1.2419749289
H -4.6504455692 -4.7905773103 1.7664925071
H -6.2028045430 -3.8897122565 1.7029231780
H -4.9108771972 -3.3640146141 2.8265575173
H 4.5414738893 -1.9093150057 -0.6782707834
H 2.2248255057 -2.9094003111 0.6716335960
H 1.7635463257 -2.5530819649 -1.0086677767
H 3.0891920437 -3.6895609001 -0.6727329707
