47
CONF17
C -5.0167302746 -3.3516567954 -1.0777087417
C -4.4584872636 -1.9875020598 -1.4769961749
C -4.1032691453 -1.1178672960 -0.2705974108
C -3.5089541816 0.2309149028 -0.6737939210
C -3.3241581015 1.2358089248 0.4731310700
C -2.7248254397 2.5482954051 -0.0528385896
C -2.7588354767 3.7057246609 0.9429025260
C -2.5168616322 0.6516415050 1.6297466674
O -1.2408234037 0.1569672060 1.1534890031
C -0.1279155976 0.8754248092 1.4730326182
O -0.1352211869 1.8773338582 2.1606641610
C 1.0564049753 0.2540219917 0.8700663157
C 2.2722751599 0.7982045252 1.0592993251
C 3.5453978703 0.3320775395 0.5460676024
C 4.7156438268 1.0385907286 0.8810612333
C 5.9568936375 0.6429324612 0.4239352072
C 6.0697361928 -0.4858537542 -0.3948350565
C 4.9215686477 -1.2073436819 -0.7449659597
C 3.6836673822 -0.7956049436 -0.2757117514
O 7.3284199910 -0.7992711974 -0.7973192919
C 7.4950271711 -1.9392509110 -1.6383320126
H -4.2885383510 -3.9142134461 -0.4835219296
H -5.9230076273 -3.2411482381 -0.4724215345
H -5.2710589290 -3.9546894449 -1.9546792236
H -3.5632402448 -2.1209013756 -2.0985529605
H -5.1891547406 -1.4575772006 -2.1020987042
H -3.3929304243 -1.6666512499 0.3612515740
H -5.0049046584 -0.9588246255 0.3390448499
H -4.1599519662 0.6956597293 -1.4264896860
H -2.5399237187 0.0677472761 -1.1631623025
H -4.3170216936 1.4593481625 0.8964120282
H -1.6911019291 2.3649913899 -0.3754620873
H -3.2781803371 2.8308655146 -0.9575966617
H -3.7795161502 3.8864517690 1.2991129125
H -2.4022350404 4.6278630964 0.4739993295
H -2.1170462427 3.5118454221 1.8064146796
H -2.3460915024 1.3904834300 2.4160829315
H -3.0239211862 -0.2166192705 2.0601154512
H 0.8920365578 -0.6417410056 0.2812446672
H 2.3057651226 1.6971721989 1.6737393299
H 4.6365464739 1.9162399441 1.5160673093
H 6.8562542184 1.1897494392 0.6847057694
H 4.9831033980 -2.0834685868 -1.3782928386
H 2.8066196427 -1.3677500205 -0.5591956572
H 6.9530554527 -1.8173681342 -2.5846215796
H 7.1606741091 -2.8558341132 -1.1361682791
H 8.5648149327 -2.0052186453 -1.8388459212
