34
CONF121
C -2.1993617483 -0.5308007827 1.4859977048
C -1.1471028238 -0.1522419892 0.6621368850
C 0.1898861789 -0.4000352465 0.9892237331
C 0.4240157420 -1.0440068228 2.2090554581
C -0.6000332561 -1.4427006791 3.0613259621
C -1.9070899911 -1.1765971654 2.6792217347
Cl -3.2156943600 -1.6715831163 3.7396395869
Cl 2.0697100716 -1.3751634077 2.7407778740
C 1.3200366038 0.0764920169 0.1055954421
C 1.8028640926 1.4798807195 0.5384484747
N 0.7361238991 2.4684371060 0.5529098503
C -0.0194675487 2.8656654233 1.5960807757
N -0.9533866892 3.7181599459 1.1898892036
C -0.7219245175 3.7978297630 -0.1504588559
N 0.2909103970 3.0573907423 -0.5854299631
C 1.0005416112 0.0469480007 -1.3804471722
O 0.7121020872 -1.3486627608 -1.7088104269
C 0.0635293882 -1.5613131128 -2.8631349404
C -0.0625665912 -3.0783112399 -3.0935525033
F -0.7291964478 -3.2878992190 -4.2647758505
F 1.1883386976 -3.6070545742 -3.2243887435
F -1.2086090332 -1.0285187755 -2.8558968969
F 0.6920618081 -0.9771986714 -3.9364913922
H -3.2243579145 -0.3238450471 1.2022946824
H -1.3858508595 0.3577201821 -0.2649972682
H -0.3798499508 -1.9437277691 3.9958578493
H 2.1832663036 -0.5814503782 0.2522268801
H 2.5925019081 1.8325393617 -0.1312565844
H 2.2052753858 1.4252674844 1.5526734818
H 0.1521030430 2.5194947362 2.6074383737
H -1.3019267903 4.4184040114 -0.8220516512
H 0.1485519530 0.6731158610 -1.6535234352
H 1.8753289687 0.3665055270 -1.9541423649
H -0.5907293212 -3.5727402242 -2.2714354961
