44
CONF2
C -5.0355510679 1.9536766441 1.6099412095
N -3.7131070583 1.6094474415 1.0731870240
C -3.8048961800 1.0238071806 -0.2836425424
C -4.3209658688 -0.4268275094 -0.0666425241
C -3.8324629634 -0.7817282452 1.3616784344
C -3.0839920386 0.4996025047 1.8248160291
C -1.5992038030 0.4635214084 1.4381978486
C -1.4616371361 0.1766207779 -0.0500612681
C -2.3955871492 1.0401693668 -0.8911531073
O -0.0642195575 0.4509140024 -0.4044150480
C 0.4426583885 -0.1835849529 -1.4681395680
O -0.1768598254 -0.9698287391 -2.1624473251
C 1.8966017255 0.1990958712 -1.6908097275
C 2.4161629039 -0.3940743530 -3.0080690789
O 1.6964562494 0.0788915848 -4.1451655929
C 2.7565793472 -0.2491402580 -0.5277090899
C 2.6975522483 -1.5714933860 -0.0758863670
C 3.5161232227 -1.9988227061 0.9655361852
C 4.4060561358 -1.1097584195 1.5655642289
C 4.4715752785 0.2079744926 1.1187957312
C 3.6506823911 0.6356946025 0.0776870510
H -4.9214460354 2.3348378782 2.6300758074
H -5.4760466410 2.7469071543 0.9970002842
H -5.7459832843 1.1104123245 1.6381517865
H -4.4792297090 1.6212177436 -0.9054001492
H -5.4121128702 -0.4573021928 -0.1274996367
H -3.9343256109 -1.1099554671 -0.8289570901
H -3.1783551262 -1.6586170093 1.3802797280
H -4.6758624206 -0.9917787442 2.0246285071
H -3.1778585784 0.6749853398 2.9011587640
H -1.0713667512 -0.3041504921 2.0148610727
H -1.1495371311 1.4362722723 1.6663307960
H -1.6424828702 -0.8827938087 -0.2528290275
H -2.0231810183 2.0708609942 -0.8996172761
H -2.4199941357 0.6713677680 -1.9216567578
H 3.4562949487 -0.0814825867 -3.1398383131
H 2.3907420932 -1.4912342013 -2.9509499461
H 3.4579717674 -3.0268492126 1.3096868983
H 5.0439506505 -1.4425902500 2.3783317416
H 5.1611962586 0.9065957092 1.5826571717
H 3.7017052039 1.6645283636 -0.2675760431
H 2.0033760702 -2.2699032854 -0.5369634137
H 1.9346095113 1.2929945659 -1.7575257071
H 0.8110017921 -0.3063082447 -4.0897911365
