18
CONF5
O 0.4335978212 -0.5719301890 -1.2233030928
C 0.1639880389 -0.3639422258 -0.0618917121
O -1.0644401954 -0.1606863915 0.4383767079
C -2.1308264233 -0.2130134957 -0.5471469053
C -3.4239895911 0.0405668962 0.1905510019
O 1.0314338751 -0.3007689286 0.9605274118
C 2.4288296686 -0.4510709248 0.5895339954
C 2.9987855408 0.8512284512 0.0673448147
H -1.9373543869 0.5439883923 -1.3143267803
H -2.1157185729 -1.1962056418 -1.0288730050
H -3.4122522874 1.0220282352 0.6719884059
H -3.5920250041 -0.7210119372 0.9566603004
H -4.2586213043 0.0113049134 -0.5160485529
H 2.5150252932 -1.2527222487 -0.1495984642
H 2.9137963670 -0.7576655577 1.5193286767
H 2.5051570762 1.1421879005 -0.8629549187
H 2.8770034500 1.6495363041 0.8048557332
H 4.0676107296 0.7281762362 -0.1350123178
