39
CONF200
C 5.0066936715 -0.5499296738 -2.1275145734
C 4.0291827214 -0.2218288384 -1.0007408255
C 2.5744433697 -0.4228391980 -1.4269029345
C 1.5993769386 -0.1149497622 -0.3064629252
C 1.5527792489 -1.1673464650 0.8255882331
O 0.2665156882 -1.7978490704 0.6736216637
C -0.5629140896 -0.8032285426 0.1059954812
C -1.7038061139 -1.5276913902 -0.6282089132
N -2.7422800894 -0.6135694536 -1.0608640966
C -3.8991683285 -0.3145309800 -0.4350713599
N -4.5326949598 0.6565837297 -1.0803722169
C -3.6885500423 0.9257127391 -2.1167401616
N -2.5875204235 0.1857651179 -2.1455666783
O 0.2495605693 -0.1458587259 -0.8441636069
C -1.0827647036 0.1931627681 1.1531227033
C -1.6863742487 -0.1790517713 2.3590645441
Cl -1.9038892966 -1.8652044648 2.8119883000
C -2.1729475474 0.7588845322 3.2641500107
C -2.0629394500 2.1046897730 2.9441232560
Cl -2.6767925227 3.2941330051 4.0782010472
C -1.4877817350 2.5251697934 1.7535640848
C -1.0088952771 1.5610114114 0.8765837650
H 4.9011161106 -1.5933854458 -2.4436200730
H 4.8215120408 0.0850499318 -3.0007628660
H 6.0428232042 -0.3958579146 -1.8112559196
H 4.1693321923 0.8181470961 -0.6789566690
H 4.2511384650 -0.8510145241 -0.1289806143
H 2.4137733466 -1.4570388017 -1.7600223317
H 2.3488747395 0.2346569012 -2.2757908330
H 1.7951566516 0.8843327946 0.1060251525
H 1.6309748390 -0.7027630530 1.8160883258
H 2.3129390644 -1.9442017467 0.7184078312
H -1.2845315890 -2.0442531693 -1.4947081904
H -2.1564813506 -2.2560634939 0.0474173744
H -4.2290602086 -0.8277289528 0.4595311230
H -3.8892172772 1.6763710234 -2.8709906579
H -2.6321098869 0.4414604152 4.1923046720
H -1.4144856235 3.5788561867 1.5118146251
H -0.5609878918 1.8721990127 -0.0598958360
