60
CONF1314
C 6.4566281532 4.0624145011 -2.1297810165
C 6.5070860639 2.5752662480 -2.4696511276
N 5.9013842743 1.7416221381 -1.4263761522
C 6.7789123628 1.3022625998 -0.3366636903
C 7.4432158428 -0.0472338614 -0.6075909234
C 4.5653157605 1.4728899074 -1.5086087118
O 3.8450673268 1.9442143858 -2.3987218649
N 4.0600834527 0.6341627553 -0.5188796792
C 2.7241299514 0.2058882204 -0.4329978767
C 1.6430097218 1.0150516350 -0.7678427983
C 0.3204892810 0.5772542175 -0.6176940748
C 0.0792542108 -0.7228047694 -0.1179179945
C 1.1654772263 -1.5288018607 0.2369455550
C 2.4648910394 -1.0711136036 0.0776216069
O -1.2096583447 -1.1451247928 -0.0320060672
C -1.4612120109 -2.4961149625 0.3990898405
C -2.9566992766 -2.7346637775 0.2944283376
C -3.7648647645 -1.8064576291 1.1954838004
N -5.1802991422 -2.1832507967 1.1502904051
C -6.1362253729 -1.1692729689 1.6685840054
C -5.7842219497 -0.8289233892 3.1185274243
C -7.5233662040 -1.8173190508 1.6146692957
C -6.1481870666 0.1140288173 0.8185932609
O -3.3961859934 -2.6539665357 -1.0708634459
C -0.7395705890 1.5585640780 -0.9967195381
O -0.4664424427 2.4758828476 -1.7674734242
C -2.1201154080 1.4651338292 -0.4058134137
H 5.4198574599 4.3995701072 -2.0412443929
H 6.9453171468 4.6455500868 -2.9168190393
H 6.9710732886 4.2667161675 -1.1852802766
H 7.5455293963 2.2468287173 -2.5885494154
H 5.9898677812 2.3835624317 -3.4127040453
H 7.5485484712 2.0720980054 -0.2153169723
H 6.2228697032 1.2874939967 0.6068673663
H 8.1220599361 -0.3007920807 0.2124479365
H 8.0232869783 -0.0092335722 -1.5345913598
H 6.7049274101 -0.8503240997 -0.7008359831
H 4.7155139246 0.0598907409 -0.0121088498
H 1.8050847823 2.0184128319 -1.1343806075
H 1.0118833447 -2.5257928737 0.6289389502
H 3.2913723721 -1.7188612840 0.3572631606
H -0.9290590948 -3.1976336609 -0.2550020113
H -1.1246047484 -2.6327022173 1.4353106760
H -3.1363639790 -3.7741227160 0.5960598873
H -3.3839012836 -1.9101762540 2.2196923650
H -3.5744931868 -0.7669680793 0.8815020616
H -5.4148613715 -2.3384565172 0.1717391519
H -6.5635547602 -0.1920293888 3.5481030555
H -4.8354003888 -0.2870539701 3.1855066732
H -5.7088254167 -1.7402364413 3.7217161737
H -7.5567021964 -2.7076114927 2.2508230550
H -7.7691987118 -2.1161114214 0.5889702210
H -8.2888069500 -1.1132436265 1.9559647859
H -6.3981418559 -0.1211212197 -0.2224849772
H -5.1782321787 0.6211304461 0.8365531321
H -6.8962129465 0.8179663922 1.1988207816
H -3.2191144728 -1.7530642825 -1.3764031881
H -2.0963156779 1.1444382873 0.6379996028
H -2.7010910512 0.7168623115 -0.9565330089
H -2.6102074141 2.4354267154 -0.5052415484
