44
CONF11
C 4.7971196517 -0.0831163384 -2.1108088749
C 3.3874653189 0.4811466601 -1.9651647700
C 3.2857170805 1.6821979528 -0.9525563856
N 1.9332297673 1.6607831758 -0.4467381838
C 1.2988218871 0.3532924566 -0.2330159547
S 2.2815611433 -0.8462174224 -1.2269678493
C -0.0327108546 0.9652755593 -0.7920463364
C 0.7965452935 2.2563006744 -0.9795134902
O 0.5978843509 3.3642655252 -1.4198157296
N -1.1845912392 1.0195155392 0.0447367560
C -2.3440814871 0.3805831616 -0.2524673378
O -2.5293489615 -0.2623622588 -1.2837241165
C -3.4302961189 0.4733556874 0.8323648244
C -3.4288676450 -0.8404042604 1.5886205204
C -4.4202311321 -1.7930377421 1.3567069842
C -4.4089631265 -3.0169491175 2.0189036552
C -3.3908965491 -3.2982092337 2.9303580909
C -2.3905418628 -2.3546366990 3.1740894121
C -2.4127969559 -1.1400148728 2.5025666404
O -3.3222583691 -4.4779650299 3.6155221385
N -3.1868632096 1.5992815744 1.7443872226
C 4.2755032148 1.5659320148 0.1961326766
O 5.4273102375 2.1954086246 -0.0918266237
O 4.0624512386 0.9736551059 1.2296982428
C 2.8450142963 0.9263251041 -3.3232255942
H 4.7889789822 -0.9223235799 -2.8117760468
H 5.1998449086 -0.4354997268 -1.1575634899
H 5.4603208393 0.6883708720 -2.5149789390
H 3.4627020176 2.6189969102 -1.4901951212
H 1.2549841203 0.0258105649 0.8086746365
H -1.1553275970 1.5145625232 0.9296250327
H -5.2172567682 -1.5786260653 0.6503965224
H -5.1896730164 -3.7498611103 1.8327244945
H -1.6034963628 -2.5855637793 3.8848002225
H -1.6287744447 -0.4138504415 2.6946014000
H -4.0615462839 -5.0446527059 3.3570422056
H -3.4550713098 2.4687296252 1.2932156215
H -3.7828623583 1.4989772531 2.5592364401
H 2.8000214326 0.0719410649 -4.0033814132
H 1.8399311989 1.3501196844 -3.2453069460
H 3.5102733483 1.6833289538 -3.7544563823
H 6.0445978252 2.0615181375 0.6488814163
H -4.3785877870 0.5467804041 0.2804612780
H -0.3027611757 0.5335947961 -1.7609059602
