20
CONF70
C 0.4411351053 -1.0440238073 0.0425341233
O 1.1416443387 -0.8701121271 -1.1979877928
C 2.0817096528 0.1328868755 -1.0307518132
O 2.8281521485 0.4910951320 -1.9094834114
C 1.9859028114 0.6555675110 0.3231681737
O 2.7815195944 1.6624463353 0.7454569978
C 1.0057226187 -0.0012553276 0.9692248725
O 0.5541174227 0.1736452732 2.2194065129
C -1.0663210141 -0.9209019039 -0.1786043383
O -1.6439065980 -1.1862402326 1.1112126413
C -1.4933782249 0.4456351229 -0.6809234200
O -2.9264617222 0.3989884520 -0.7207236805
H 0.6484967830 -2.0552389410 0.4219139983
H 3.3682842688 1.8751196644 0.0028099952
H -0.2866082674 -0.3149684548 2.2916218575
H -1.3894359198 -1.6859047223 -0.9000963307
H -2.5638435585 -0.8894138227 1.0599222743
H -1.0649342594 0.6226534989 -1.6767075789
H -1.1424949375 1.2264403765 0.0094037221
H -3.2593000360 1.2835809971 -0.9013971049
