40
CONF16
C 4.0203433204 0.3192679657 -0.8959737195
C 2.6530439464 -0.3220744974 -0.8300183558
O 2.1108689975 -0.2217756944 0.5190799101
P 1.1756388992 0.9848787236 0.9719420126
S 0.9303955325 2.5027072544 -0.1948267165
O 1.7987472637 1.2456556628 2.4222138616
C 1.2442656550 2.2923150548 3.2688088820
C 2.1324498471 2.4006262546 4.4856644825
O -0.2223286034 0.2415509882 1.4746119633
C -1.1368362391 -0.2702589028 0.6037190189
C -2.4068893027 -0.5484841341 1.1033081993
C -3.3137076049 -1.0820014625 0.2004458040
N -2.9806886201 -1.2993408215 -1.0875694436
C -1.7371894081 -0.9928978861 -1.4544375713
N -0.7820633605 -0.4938071282 -0.6473337980
C -1.3519462947 -1.2103632732 -2.8973820787
C -0.9428301748 0.1187778927 -3.5438128819
C -0.2288062029 -2.2483098761 -3.0053857789
C -4.7136298064 -1.4354821462 0.5956358322
H 3.9477974019 1.3934696819 -0.7057164790
H 4.4437865721 0.1731176882 -1.8951157396
H 4.6956366759 -0.1289187662 -0.1621199792
H 2.6962699738 -1.3972492494 -1.0230164079
H 1.9506888520 0.1374921999 -1.5316808887
H 1.2185641816 3.2274112151 2.6979799256
H 0.2192382706 2.0138133760 3.5410929760
H 2.1605973084 1.4543230834 5.0319911926
H 1.7451538295 3.1769334922 5.1524094496
H 3.1515543828 2.6682801644 4.1951633703
H -2.6561185024 -0.3517394393 2.1386020043
H -2.2454650608 -1.5962204469 -3.3980167324
H -0.0797931262 0.5489026561 -3.0265507711
H -1.7579496297 0.8473622449 -3.4988005674
H -0.6802355093 -0.0386358326 -4.5947401894
H 0.6702394688 -1.8874552804 -2.4980711558
H -0.5212287345 -3.1999170056 -2.5508188477
H 0.0161811242 -2.4303958520 -4.0564875018
H -4.9051951578 -2.4896054728 0.3738749460
H -4.8950267576 -1.2505948455 1.6561625245
H -5.4235346140 -0.8513575594 0.0018742686
