24
CONF2
C -2.4305999392 -0.6787004089 -1.5644616511
C -1.0719814948 -0.9552241582 -1.4569448585
C -0.2649338144 -0.3927500192 -0.4440422837
C -0.9395078648 0.4487897638 0.4230725370
C -2.2883786020 0.7251170983 0.3096089666
C -3.0834334989 0.1838245424 -0.6718176693
O -2.6578522186 1.5723844979 1.3447240334
C -1.5057451194 1.8100886874 2.0834836962
O -0.4429003237 1.0950333458 1.5455071357
F -1.2217652091 3.1318774070 2.0930152247
F -1.6966300073 1.4592447666 3.3725913242
C 1.1562411003 -0.6978427477 -0.3191067666
C 1.7335077251 -1.9407328064 -0.4724948130
N 3.0858615947 -1.8105548580 -0.2928024120
C 3.4158348605 -0.5225937796 -0.0317432360
C 2.2366778254 0.2123706794 -0.0358335166
C 2.1603307667 1.6082007423 0.1014677646
N 2.0970416848 2.7639865110 0.1882670313
H -3.0014135775 -1.1333646595 -2.3666928954
H -0.5991325418 -1.6106206033 -2.1806284940
H -4.1405583149 0.4077996579 -0.7469877764
H 1.2778386064 -2.8997589767 -0.6679194587
H 3.7461788271 -2.5725875617 -0.3338112528
H 4.4353191332 -0.2039869248 0.1235494658
