48
CONF81
C -3.1933386752 1.1387080057 -2.8784772303
O -4.0948482815 1.2757783040 -1.7697725292
C -3.7709523623 0.6401382925 -0.6138922283
C -4.6901970138 0.8333774533 0.4459194137
C -4.4633380530 0.2469279652 1.6596628731
C -3.3176068678 -0.5581661995 1.8842208065
N -3.1659796298 -1.1008948730 3.1242880065
C -2.1016309511 -1.8525978942 3.3319906472
C -1.1331371363 -2.1146418940 2.3473035278
C -1.2462263940 -1.5755290132 1.0830907608
C -0.1623574474 -1.9074570585 0.0730137409
O -0.6612222441 -2.6602383074 -1.0457517735
C 0.6652057576 -0.7020973376 -0.4045232179
C 1.8916076180 -1.1476027385 -1.2448930739
C 3.0698429632 -0.2336465675 -0.8761484283
C 3.4802312969 -0.5480204831 0.5683073445
C 2.2090896843 -0.4585011024 1.4561513206
N 1.0802501063 0.1576519805 0.7240548934
C 1.5447222911 1.4409830672 0.1668202702
C 2.5824604758 1.2331492319 -0.9855966787
C 3.6817657582 2.2409760477 -0.9184321807
C 3.9500258702 3.1400937632 -1.8662396593
C -2.3850566588 -0.7579244552 0.8139179126
C -2.6463283707 -0.1406645915 -0.4356738930
H -3.6291309410 1.7256633314 -3.6868609254
H -2.2021185137 1.5334406408 -2.6257221986
H -3.1084937474 0.0897985031 -3.1858815025
H -5.5652400980 1.4511423793 0.2712022782
H -5.1576735998 0.3855699237 2.4822947760
H -1.9898741649 -2.2853911479 4.3254250609
H -0.2871893311 -2.7486423822 2.5957742207
H 0.5181303042 -2.6078993981 0.5700254074
H -1.1130829889 -2.0653667542 -1.6573944864
H 0.0209796540 -0.0722582564 -1.0299684816
H 1.6682358302 -1.0851561700 -2.3147547615
H 2.1532080914 -2.1903540003 -1.0231382715
H 3.9086002445 -0.3978097135 -1.5604373611
H 4.2489298654 0.1515479866 0.9127942034
H 3.9142850080 -1.5526481204 0.6158057175
H 2.3959201869 0.1470809187 2.3497935395
H 1.9000228159 -1.4499894770 1.8018844675
H 1.9959258622 2.0150506013 0.9856485351
H 0.6827739073 2.0088583926 -0.2030767909
H 2.0760716488 1.3446605200 -1.9533371799
H 4.2838797158 2.2373429782 -0.0081402050
H 4.7565188574 3.8590267446 -1.7549448522
H 3.3662581348 3.1825918051 -2.7834787674
H -1.9599199964 -0.2660613934 -1.2584131607
