38
CONF2
C -6.2471447888 -1.3946647561 -1.5551939003
C -4.9919216431 -1.3982578035 -0.6948907712
C -5.3823407477 -1.6077364893 0.7686431284
O -5.4950584230 -2.7039468778 1.2672564712
O -5.6320310443 -0.4485210614 1.3946894835
C -6.0207169031 -0.5799045767 2.7812356502
O -4.3251495897 -0.1630535176 -0.9326551268
C -3.0945972287 0.0220632011 -0.3639042567
C -2.5086163612 1.2684175362 -0.6048737972
C -1.2608666602 1.5632798001 -0.0828559512
C -0.6027316515 0.6077356189 0.6792528766
C -1.1689930546 -0.6259695893 0.9315409598
C -2.4256164516 -0.9286805739 0.4088130869
O 0.6247363514 0.9262250037 1.2826104234
C 1.7430066949 0.8234876868 0.5350728955
C 2.9606941964 1.1962140763 1.1425479203
C 4.1208454885 1.0968002524 0.4071296126
C 4.0440859128 0.6304051679 -0.9087815880
C 2.8030756739 0.2868552414 -1.4216773731
N 1.6772638579 0.3835717845 -0.7076768144
C 5.2977866743 0.5288255603 -1.7193751901
F 6.2294242585 -0.2417035033 -1.1031146362
F 5.8708545571 1.7453479840 -1.9065522382
F 5.0763126518 -0.0034440723 -2.9394728487
Cl 2.9932553845 1.7667211389 2.7849330256
H -6.8856895271 -0.5504102301 -1.2828787949
H -6.7981233986 -2.3269195129 -1.4098094837
H -5.9686598364 -1.3040512220 -2.6076434400
H -4.3476984887 -2.2439695411 -0.9710225736
H -6.1770335280 0.4383188199 3.1350537543
H -6.9381399709 -1.1679234172 2.8626123015
H -5.2251312360 -1.0700035610 3.3479637716
H -3.0509920995 1.9924079959 -1.2024350821
H -0.6334109288 -1.3507512582 1.5345047388
H -2.8560106667 -1.9006423326 0.6179667438
H 5.0717775487 1.3756754964 0.8476518214
H 2.7011548566 -0.0809586054 -2.4384536082
H -0.7950456165 2.5259525077 -0.2623569897
