45
CONF17
C -3.7996359067 -4.1602948415 -2.8062065330
C -3.5091734009 -2.7265635870 -3.1138710073
C -2.8681635140 -1.8871885988 -2.2929973395
C -2.6277761779 -0.4749725196 -2.6286735014
C -1.2816037993 0.2345633444 -2.3430610214
C -2.5669349795 0.6257220651 -1.6086353298
C -2.7312967300 0.3222031392 -0.1376332757
C -3.1400402091 1.9670244587 -2.0141345378
C -0.1782638260 -0.4602636944 -1.6697630720
O -0.2457583575 -1.3414643647 -0.8342973824
O 1.0169240517 0.0302857764 -2.1165642126
C 2.1969548704 -0.5374484945 -1.4926052333
C 2.3668410399 -0.0236254643 -0.0913218535
C 2.5601734175 1.3345979523 0.1433874279
C 2.6871376892 1.8427260358 1.4263867418
C 2.6278068211 1.0181087007 2.5446915759
C 2.4555286239 -0.3407422786 2.3088180948
C 2.3243416885 -0.8519010004 1.0248496543
F 2.1635654603 -2.1763313415 0.8785622548
F 2.4103812195 -1.1940449519 3.3472734552
C 2.8061513589 1.5587722432 3.9316667942
O 4.2006783239 1.5143681275 4.2402948556
C 4.4479718713 2.0145857246 5.5555649066
F 2.8789098382 3.1646302729 1.5812456326
F 2.6291564053 2.1803792163 -0.8997967781
H -3.3524843783 -4.8212577344 -3.5588589409
H -4.8788758906 -4.3559391824 -2.8228915765
H -3.4118840870 -4.4432845660 -1.8234081269
H -3.8541147370 -2.3567064092 -4.0808653928
H -2.5149824801 -2.2525168958 -1.3328760164
H -3.0350761233 -0.1810428549 -3.5943830072
H -0.9568615583 0.9296049476 -3.1096073244
H -2.2853689453 -0.6276016424 0.1540205568
H -3.7989989068 0.2980435226 0.1072364727
H -2.2670399995 1.1151343673 0.4591700549
H -3.0126313536 2.1520181959 -3.0844576978
H -2.6498869250 2.7762272015 -1.4614370034
H -4.2111904950 1.9985084659 -1.7847470806
H 2.1376471588 -1.6265209436 -1.4995600403
H 3.0217674463 -0.2049753070 -2.1251396205
H 2.2360639178 0.9509014686 4.6481550798
H 2.4349689137 2.5918627859 3.9822712391
H 4.1253009715 3.0616626695 5.6466948277
H 3.9247788951 1.4118199138 6.3117087370
H 5.5249936129 1.9509358069 5.7224616964
