50
CONF11
C 4.2372939928 -2.8790462787 -0.9712140624
C 3.0893465346 -2.3696851234 -0.1536303514
O 3.1665430761 -1.9428899990 0.9784439103
O 1.9347814031 -2.4331408096 -0.8649706862
C 0.7289019337 -1.9044611729 -0.2617430501
C -0.3359836726 -2.9735243985 -0.2348627486
C -1.5892691806 -2.6331267326 0.0871689859
C -1.8119174207 -1.1870467073 0.4064380952
C -3.2275299063 -0.6436540422 0.6457943688
C -3.1581120601 0.8448805052 1.1607987713
C -1.9013016266 1.6026087619 0.7825579388
C -1.0121519685 1.0129301257 -0.0964844768
C -1.1933239905 -0.3247647900 -0.7195603032
C 0.2529630863 -0.7105928674 -1.0915873706
O 1.0899621503 0.4856780558 -0.8627321894
C 0.3093038462 1.4048119836 -0.2193393397
C 0.7289737078 2.5771958919 0.3872053417
C -0.1870995587 3.2810699195 1.1701135215
C -1.4748852217 2.7915357175 1.3963014536
O 2.0388398988 3.0425540417 0.2345387737
C 3.0073842281 2.4012979948 0.9692473597
O 2.7553113294 1.5388846010 1.7757002291
C 4.3636545523 2.9134927624 0.6062462861
C -2.0877053002 -0.3495195211 -1.9705868024
C -3.5349746089 0.0006951681 -1.6661528944
N -4.0311656366 -0.8346501737 -0.5708574513
C -5.4583966223 -0.6209583388 -0.3454260059
H 5.0996448296 -3.0506454773 -0.3281687758
H 3.9614095144 -3.7932659964 -1.5012709270
H 4.4912594031 -2.1232587798 -1.7222953539
H 0.9641538672 -1.5596236492 0.7543627279
H -0.0352364823 -3.9899459565 -0.4695196600
H -1.2388207893 -0.9675519462 1.3211367937
H -3.7034054193 -1.2399171252 1.4332570343
H -3.2176118725 0.8376857834 2.2553149071
H -4.0525613928 1.3808744153 0.8222488263
H 0.3550924995 -0.9525188533 -2.1529574399
H 0.1472121586 4.1936728175 1.6540126395
H -2.1272675804 3.3159101250 2.0883380570
H 4.6402796998 2.4981576857 -0.3689615321
H 4.3560585960 4.0015623386 0.5129032903
H -1.6805026149 0.3452951878 -2.7138917710
H -2.0417549678 -1.3592188487 -2.3971154271
H -3.6279201429 1.0802296115 -1.4350790617
H -4.1518125803 -0.1855638712 -2.5529846040
H -5.7186889623 0.4265819512 -0.1060581854
H -6.0113871924 -0.8997560143 -1.2489952054
H -5.8011860676 -1.2555445955 0.4787117587
H 5.0890306499 2.5925612617 1.3526419346
H -2.3957657555 -3.3598548610 0.1269815098
