40
CONF31
C -1.2011956374 -2.1761270270 2.6662392315
C -0.5067664703 -1.6947772699 1.3809272781
C 0.9942958189 -1.9918090706 1.4896223206
C -1.1775882565 -2.3871895010 0.1886257282
C -0.5975633325 -3.4769420270 -0.4631585543
C -1.2603247572 -4.1191525957 -1.5091780478
C -2.5163736159 -3.6842510291 -1.9198276897
C -3.1067634932 -2.5998327325 -1.2724710338
C -2.4434901474 -1.9619716686 -0.2298136062
N -0.7175797647 -0.2358500151 1.3219929356
C -0.3960696490 0.5178769633 0.2239098728
O 0.2788287342 0.0900871723 -0.7174335010
N -0.9084869486 1.8024582969 0.2330422062
C -0.3316096958 2.7984683094 -0.6675193835
C 1.0752270284 3.2127039519 -0.2971893683
C 2.1588028658 2.8201942809 -1.0887617547
C 3.4651047006 3.1690574180 -0.7620928248
C 3.7156269602 3.9265550916 0.3784306887
C 2.6595053140 4.3378219503 1.1865734890
C 1.3647237813 3.9761936963 0.8358094314
Cl 0.0457501984 4.5281307284 1.8780969065
H -0.7549078961 -1.6948051366 3.5431946158
H -1.0802940629 -3.2579999656 2.7606787288
H -2.2722703262 -1.9507415072 2.6386481164
H 1.1655061272 -3.0510240472 1.6990395674
H 1.5193660982 -1.7173971076 0.5729765687
H 1.4066997965 -1.4125192226 2.3203597544
H 0.3831867688 -3.8327264671 -0.1689248223
H -0.7864342133 -4.9605164990 -2.0060787060
H -3.0302733942 -4.1820033572 -2.7362392682
H -4.0864071998 -2.2478897913 -1.5820984915
H -2.9131895542 -1.1135317685 0.2598146155
H -1.3868127395 0.1451270933 1.9742727285
H -1.2525604355 2.1594031678 1.1131878433
H -0.9966815243 3.6673900757 -0.6639769371
H -0.3222830121 2.3865140039 -1.6790512638
H 1.9598248302 2.2249668184 -1.9744950339
H 4.2853911574 2.8480952751 -1.3956567784
H 4.7302353119 4.2037578231 0.6453284972
H 2.8378497352 4.9342564041 2.0742415507
