21
CONF4
C -2.1461600797 1.9419336280 -0.1847515581
C -2.2849997741 0.4664367626 -0.4540900608
O -3.3785725604 -0.0215117308 -0.7198520434
C -1.0663045832 -0.3959065302 -0.3917188637
C -1.1964900335 -1.7642302814 -0.6459747915
C -0.0742523611 -2.5839857248 -0.5924075365
C 1.1729762700 -2.0555453083 -0.2881336991
C 1.3082423207 -0.6852875090 -0.0316559318
C 0.1899982059 0.1474493178 -0.0834536561
O 2.5683678294 -0.2613138543 0.2589241702
C 2.7542441872 1.1351254904 0.5321895514
H -1.4463003151 2.3986909037 -0.8928257004
H -3.1220334484 2.4192820862 -0.2746625549
H -1.7449225410 2.1128541821 0.8202188825
H -2.1730347990 -2.1704001450 -0.8821505923
H -0.1680122149 -3.6473895670 -0.7891752569
H 2.0543874116 -2.6873620109 -0.2434827954
H 0.2878434331 1.2062194096 0.1140135993
H 3.8182053640 1.2552394818 0.7367182718
H 2.1728700292 1.4442718359 1.4086416791
H 2.4739472412 1.7454293624 -0.3341814185
