49
CONF86
C -3.0908619978 2.2817634665 2.1974782372
C -3.1654368243 0.7872874537 1.9610418439
C -1.9195698927 -0.0933233659 2.1304530982
C -2.5481376137 0.1768596803 0.7356538895
C -3.1873380598 -1.0247026414 0.0692342443
C -1.8010048915 1.0361408637 -0.2612003284
C -0.5896686871 0.4159951628 2.4515613693
O -0.1369168468 1.5334709336 2.3148323420
O 0.1891630152 -0.6190295723 2.9414547559
C 1.5814300055 -0.2809630214 3.0937467629
C 2.1664381065 -1.3738564285 3.8723010736
N 2.6664035480 -2.2284208354 4.4667986741
C 2.2855810248 -0.1417067015 1.7546845914
C 3.2845611365 0.8141589437 1.5943886063
C 3.9154328478 0.9421254827 0.3589700022
C 3.5501730770 0.1351087448 -0.7125800532
C 2.5409620600 -0.8101967528 -0.5330712270
C 1.9109713574 -0.9648699246 0.6957724684
O 2.1716385643 -1.6860659688 -1.5343651948
C 2.0383222726 -1.2071034154 -2.8289579944
C 2.4299467257 -2.0594699673 -3.8562278576
C 2.2450363481 -1.6592495308 -5.1769049833
C 1.6816805018 -0.4180636139 -5.4665046476
C 1.2934416129 0.4222568400 -4.4241359406
C 1.4647406807 0.0336413967 -3.0983911640
C -4.4455605731 0.2017259246 2.5289649051
H -2.1877555557 2.7430659052 1.8050739845
H -3.1366273770 2.4898483048 3.2720557661
H -3.9600180487 2.7573916020 1.7286409550
H -2.1001440457 -1.0939387133 2.5092248351
H -2.4334817270 -1.5715073037 -0.5076463529
H -3.6381926988 -1.7194733081 0.7782539237
H -3.9646682903 -0.6904963708 -0.6281087699
H -2.5118247882 1.4445921188 -0.9887044032
H -1.0780594474 0.4213094699 -0.8098464522
H -1.2603197648 1.8641303354 0.1941708407
H 1.6898694185 0.6471445767 3.6681009486
H 3.5595578890 1.4598415636 2.4223952340
H 4.6973948912 1.6827586446 0.2265048969
H 4.0371369119 0.2369488005 -1.6764555937
H 1.1279511159 -1.7077575124 0.8063742590
H 2.8705002244 -3.0209369017 -3.6136580250
H 2.5498557637 -2.3211115947 -5.9815093754
H 1.5434490067 -0.1081364619 -6.4970286715
H 0.8452268755 1.3871635098 -4.6399616821
H 1.1550999770 0.6818806271 -2.2852456210
H -5.3084000044 0.5748333996 1.9652535664
H -4.5627285192 0.5174049105 3.5711075630
H -4.4652497120 -0.8884689666 2.5056797081
