50
CONF50
C 2.6685016144 -0.6985426128 -2.5406366504
C 2.3726303169 -0.6518398721 -1.0598684285
C 1.2557377273 -1.3393483413 -0.5839188004
C 1.0326337888 -1.4452944610 0.7999377671
C 1.9077399492 -0.9099631836 1.7127821604
C 3.0357801024 -0.1858427296 1.2771466161
C 3.2315939030 0.0010862500 -0.1266825808
C 4.3115551281 0.9119061874 -0.4426921594
N 5.1641815709 1.3368034904 0.4827123928
C 4.9424106043 0.9630836644 1.7661879353
N 3.8956317945 0.2912500122 2.2221547596
N 5.8641381743 1.4126634224 2.6762476617
N 4.5162711306 1.4046726505 -1.6935027318
C 0.2771467015 -1.9854074151 -1.5576430298
N -0.9976323247 -2.3433824098 -0.9609617229
C -1.9802327366 -1.3875437341 -0.7479617018
C -1.6667480017 -0.0210265450 -0.7403249928
C -2.6699454010 0.9136739377 -0.4704144629
C -3.9878331908 0.5086940822 -0.2305220269
C -4.2878194020 -0.8634376374 -0.2432229337
C -3.2981802508 -1.8095354461 -0.5012312718
O -5.5924395967 -1.1709833775 0.0055055463
C -5.9549022653 -2.5560405153 0.0104216652
O -4.9798409612 1.4413351255 -0.0097550349
C -5.1574464538 1.7447749538 1.3872627725
O -2.4535577446 2.2589970166 -0.4232597955
C -1.1127205779 2.7197944373 -0.6270765084
H 2.1921775008 0.1255329470 -3.0897793656
H 3.7405723606 -0.6712156489 -2.7385677470
H 2.2880178285 -1.6235868810 -2.9766294121
H 0.1541110432 -1.9831457221 1.1418082584
H 5.8710485871 0.9520339551 3.5726125474
H 6.7627328943 1.6846698604 2.3100778407
H 5.1671022474 2.1738870147 -1.7539875967
H 3.7604255604 1.4172715701 -2.3559586998
H 0.1233665387 -1.3101650765 -2.4144787949
H 0.7153839937 -2.9066678025 -1.9614069187
H -1.3447067013 -3.2541151737 -1.2164116041
H -0.6509642456 0.3031910229 -0.9147958414
H -3.5245863532 -2.8688685751 -0.5143871971
H -5.4070309359 -3.1054336875 0.7852984682
H -5.7712390708 -3.0157417909 -0.9679495352
H -7.0226512329 -2.5798627341 0.2307140097
H -4.2345419311 2.1580254047 1.8119391233
H -5.9550760395 2.4885952126 1.4476163053
H -5.4490239736 0.8454319933 1.9429903772
H -0.4331510602 2.3069103849 0.1284748006
H -0.7523805973 2.4583984448 -1.6292380081
H -1.1568144617 3.8047061159 -0.5261904111
H 1.7546966143 -1.0322635610 2.7801504524
