59
CONF36
C 5.7828685547 -1.6582979400 -1.7677884400
C 5.9665551897 -3.0663278532 -1.1948397606
C 5.8682909703 -2.8192955946 0.3134253169
C 4.7611993320 -1.7448460956 0.4795043577
C 4.6199047686 -1.0967787294 -0.9372245599
C 5.1352360223 -0.7135072196 1.5404912156
C 4.0538916041 0.3019061426 1.8055472267
O 4.3084241111 1.4307118139 2.2017651591
N 2.7280842157 -0.0880788239 1.5915178531
C 2.3477320447 -1.3482194445 1.1164344731
O 1.1720037773 -1.5968992549 0.8900315552
C 3.4406086254 -2.3679935420 0.9319728558
C 1.6729275080 0.9217721417 1.7960418880
C 1.4438669045 1.7513555145 0.5351534270
C 0.4110852023 2.8595936961 0.7486565219
C -0.9446314488 2.3650212417 1.2594021132
N -1.4877387412 1.2422941596 0.4867934727
C -1.8597515178 1.6527362844 -0.8713332323
C -2.4060637435 0.4651036612 -1.6589486081
N -3.5533590135 -0.1160806745 -0.9609833620
C -3.1953060139 -0.5285274498 0.3970887911
C -2.6467597518 0.6639408928 1.1748931415
C -4.8352063477 0.2352594537 -1.2841614739
N -5.0312231182 0.8720635087 -2.4648906742
C -6.2932392347 1.1478824958 -2.7866374369
C -7.3753805366 0.8212509917 -1.9774318780
C -7.0630400133 0.1791204447 -0.7845999671
N -5.8176789251 -0.1172869731 -0.4192534126
H 5.5786621215 -1.6440356675 -2.8425313338
H 6.6926919632 -1.0709768988 -1.5908110524
H 5.1471285302 -3.7151069253 -1.5299475480
H 6.9098071861 -3.5373442110 -1.4876617318
H 6.8212994190 -2.4116300252 0.6727253529
H 5.6538813995 -3.7209625084 0.8957977672
H 4.6216757122 -0.0023885325 -0.8933136117
H 3.6676070754 -1.4019167859 -1.3873124652
H 5.3471725131 -1.2175993635 2.4951058956
H 6.0342573495 -0.1545978032 1.2643389936
H 3.0728770342 -3.1125304804 0.2210724199
H 3.5780272172 -2.8713768096 1.9000788918
H 1.9830870746 1.5595016010 2.6271262456
H 0.7654237005 0.3842351379 2.0740773230
H 2.3949801086 2.2004667533 0.2264932647
H 1.1182267089 1.0834541836 -0.2705748407
H 0.2872271096 3.4163447033 -0.1869254516
H 0.7924619065 3.5810890836 1.4825522013
H -1.6542475863 3.2160931015 1.2811493664
H -0.8392212943 2.0240575584 2.2968914077
H -2.6236717169 2.4573308681 -0.8530456392
H -0.9763117190 2.0406514895 -1.3893209246
H -1.6318535551 -0.3088786579 -1.7371180589
H -2.6983645567 0.7734971163 -2.6615637721
H -4.0654872509 -0.9471910487 0.9003993603
H -2.4213592592 -1.3028604350 0.3198721820
H -3.4574994161 1.4100648411 1.3074022494
H -2.3327594647 0.3309255385 2.1715907884
H -6.4443670525 1.6588849772 -3.7372420631
H -8.3947693259 1.0576751851 -2.2550442264
H -7.8484709824 -0.1082210071 -0.0859545217
