38
CONF15
C -6.7559893987 -0.4713952672 -0.4030669384
C -5.2961995829 -0.8496078501 -0.1947463259
C -4.9144647850 -0.5870478928 1.2634647322
O -4.5199852390 0.4629319939 1.7000644952
O -5.1429947678 -1.6940545992 2.0057022927
C -4.8984326570 -1.5303930602 3.4221535133
O -4.5318785373 -0.0313433286 -1.0674323415
C -3.1874749234 -0.2683079176 -1.1614780514
C -2.4893500312 0.5952875624 -2.0102730439
C -1.1261920761 0.4387252850 -2.1938870440
C -0.4653795063 -0.5808590435 -1.5231630184
C -1.1397645509 -1.4440319094 -0.6824362112
C -2.5125552752 -1.2919212509 -0.4953718203
O 0.9013659671 -0.7982542871 -1.7641957898
C 1.7910719688 -0.0622921893 -1.0663684085
C 3.1587681774 -0.2727791161 -1.3418287035
C 4.0915861968 0.4584681080 -0.6406622031
C 3.6452749436 1.3787353652 0.3130673985
C 2.2812148497 1.5186695823 0.5152602261
N 1.3764912210 0.8081279381 -0.1650061862
C 4.6523503846 2.1726512844 1.0838520890
F 5.4548229604 2.8952974957 0.2614976509
F 5.4722879419 1.3691860477 1.8090416439
F 4.0735323212 3.0365550883 1.9435371313
Cl 3.6535931438 -1.4318763059 -2.5402591318
H -6.9004747299 0.5858397715 -0.1668044544
H -7.3964383290 -1.0772459307 0.2427070967
H -7.0340790014 -0.6455360651 -1.4450960296
H -5.1429953850 -1.9126686577 -0.4260715458
H -5.5467109215 -0.7506966555 3.8297681397
H -5.1251178684 -2.4970559348 3.8705244358
H -3.8546966899 -1.2557673641 3.5933803687
H -3.0355762236 1.3838487417 -2.5152555138
H -0.5958543288 -2.2320108305 -0.1735607326
H -3.0274203050 -1.9751049278 0.1693338407
H 5.1500710640 0.3180616091 -0.8302944871
H 1.8929929804 2.2217718799 1.2463226343
H -0.5728447340 1.1028850121 -2.8485654807
