44
CONF9
C 4.3810304253 0.0565092126 -2.4493874264
N 3.1255783626 -0.6916126491 -2.4412954929
C 3.2626951197 -1.9416031127 -1.6956636068
C 1.9860258824 0.1102436109 -1.9959748547
C 2.0376847533 0.6395228951 -0.5363318247
C 0.7713531267 1.3648472802 -0.2179600455
C -0.3351864173 0.8158147384 0.3182433897
C -1.5629766041 1.6283065590 0.5271351947
C -1.4048725663 2.8960661624 1.1180139991
C -2.4829565376 3.7329711458 1.3657467541
C -3.7668912169 3.3083341493 1.0306717153
C -3.9383926932 2.0590987075 0.4503009955
C -2.8635236498 1.1983984462 0.1870892732
C -3.2218101930 -0.1181620573 -0.4788890231
C -2.0817981235 -0.9761068842 -1.0378468792
C -1.2035503188 -1.5049865280 0.0578629343
C -1.2225367199 -2.8471998030 0.4400480622
C -0.4313121852 -3.3015858121 1.4930037906
C 0.3858379387 -2.4073117174 2.1809434090
C 0.4132850172 -1.0665167463 1.8062947500
C -0.3699733314 -0.6082033573 0.7428388368
H 5.1560793287 -0.5390730225 -2.9448250500
H 4.7491644608 0.3081732766 -1.4378603878
H 4.2522508465 0.9890583678 -3.0095055028
H 3.5766886217 -1.7978824611 -0.6453637269
H 2.3074601547 -2.4785687149 -1.6963816045
H 4.0140584498 -2.5741361857 -2.1816692702
H 1.0817913448 -0.5046395969 -2.0982300484
H 1.8791021313 0.9636862785 -2.6785683845
H 2.1824901497 -0.2046399354 0.1418116359
H 2.8919469549 1.3159511881 -0.4229639684
H 0.7140019674 2.4022357549 -0.5465649244
H -0.4056057233 3.2087353808 1.4050369897
H -2.3237081954 4.7018588432 1.8289926821
H -4.6265812164 3.9438173359 1.2198297604
H -4.9388656087 1.7318165732 0.1765147334
H -3.9195520912 0.1075674882 -1.2944337009
H -3.7907356217 -0.7239657953 0.2403239487
H -2.5186665469 -1.8087010740 -1.5977175384
H -1.4865632392 -0.3820798209 -1.7430627774
H -1.8632945787 -3.5422290832 -0.0966592428
H -0.4551944160 -4.3493126299 1.7769180347
H 0.9996355695 -2.7511790775 3.0078306952
H 1.0463882949 -0.3633168009 2.3401817125
