34
CONF30
C 5.9627447315 1.4526240169 0.1015222806
N 5.1030904216 1.8004992853 -1.0463475744
S 3.8996804521 0.7815622552 -1.5232226437
O 4.4195581566 -0.5856744216 -1.5370698207
O 3.2279574392 1.3858137443 -2.6756960166
C 2.6080018458 0.8268876646 -0.0945345474
C 1.2078430084 0.2999405554 -0.5348715159
C 0.2807370859 -0.0835753414 0.6733440336
C -1.2359244002 -0.1935497124 0.2752850415
C -2.0901354470 -0.9967555037 1.3111767776
C -3.6575783523 -0.8365148007 1.2200785653
C -4.3217267660 -1.1590311199 -0.1550386690
C -5.8774602140 -1.3254060040 -0.0998841754
F -6.3399798723 -1.3986392812 -1.3550646043
F -6.2155402665 -2.4459487622 0.5461184296
F -6.4444384848 -0.2771844848 0.5108795602
F -4.0490546560 -0.1486195849 -1.0112074511
F -3.8101628191 -2.3095313847 -0.6476641709
F -4.1606047895 -1.6894898443 2.1464985148
F -3.9830740146 0.4239923505 1.5742781982
F -1.7963708949 -2.3085579059 1.2027956484
F -1.7535448836 -0.5745876497 2.5550083001
F -1.3288389832 -0.8168986936 -0.9228638621
F -1.7382600084 1.0554396087 0.1662903381
F 0.6949942916 -1.2681385324 1.1735364328
F 0.4066420562 0.8672919944 1.6271370490
F 0.5977013366 1.2600173081 -1.2642310612
F 1.3900753465 -0.7976621750 -1.3044007834
F 3.0897691554 0.0722616839 0.9158446023
F 2.5080094980 2.1057074500 0.3185623685
H 6.8717014174 2.0521570752 0.0164342111
H 6.2339313491 0.3977361063 0.0391879611
H 5.4803114455 1.6581037691 1.0627197884
H 4.8199475241 2.7757303345 -1.1049254053
