44
CONF4
C -4.3097242869 -0.1957585944 1.0791991437
N -3.1225142842 0.6389534024 0.9542524504
C -2.7897638471 1.1122045444 -0.4043494338
C -1.5035244029 1.9143553227 -0.1264261203
C -0.8651916627 1.1893455380 1.0921542089
C -1.8468753660 0.0415771207 1.3972114665
C -1.5160514240 -1.2482476941 0.6254964216
C -1.5176631928 -1.0591425322 -0.8952577855
C -2.5672432298 -0.0589991156 -1.3783026613
O -0.2081982064 -0.5343360854 -1.3286001180
C 0.7985758214 -1.4050369156 -1.4455506628
O 0.6970419883 -2.6100398577 -1.2959232074
C 2.0981200518 -0.6822263885 -1.7642413028
C 3.1956962484 -1.6787317750 -2.1538859660
O 2.8525862640 -2.4357779964 -3.3140464159
C 2.4983669486 0.1563953709 -0.5674709599
C 2.6862078827 -0.4448129154 0.6818183400
C 3.0386763594 0.3222401484 1.7883906639
C 3.2048788686 1.6997416555 1.6607870794
C 3.0198812344 2.3046168430 0.4198300401
C 2.6694340476 1.5365901339 -0.6879047130
H -4.2870486677 -1.1418624238 0.5123629958
H -4.4609011100 -0.4467160072 2.1354066603
H -5.1832945268 0.3722289198 0.7390852584
H -3.6004490307 1.7442334169 -0.7872063789
H -0.8416185140 1.9398555204 -0.9949804604
H -1.7615998353 2.9447793895 0.1323683356
H 0.1420848272 0.8223526405 0.8835172977
H -0.8075966812 1.8627904254 1.9517508843
H -1.8964695150 -0.1893166121 2.4685223169
H -2.2568005911 -2.0187580380 0.8695414773
H -0.5452367744 -1.6434085559 0.9443474198
H -1.6481227156 -2.0222047146 -1.3967422061
H -3.5104237013 -0.6021884974 -1.5067570980
H -2.2838688296 0.3114907153 -2.3693645560
H 1.9052651561 -0.0163237242 -2.6129806710
H 3.4193096769 -2.3390228580 -1.3052170809
H 4.1023482441 -1.1177581397 -2.3993739765
H 2.1449433389 -3.0399026133 -3.0508919458
H 2.5407171744 -1.5158944353 0.7951862206
H 3.1764529547 -0.1559483704 2.7532508038
H 3.4749653904 2.2988301000 2.5247108003
H 3.1456012445 3.3776902113 0.3127733156
H 2.5190278847 2.0121438487 -1.6530129960
