33
CONF2
C -5.3224425435 -0.2438183943 -0.6494559129
C -4.0099906486 0.5001914911 -0.4409768508
C -4.0643660825 1.2427278806 0.8923153498
O -4.4891593589 2.3673955928 1.0091910219
O -3.6482360211 0.4803926163 1.9249212190
O -2.9716916732 -0.4663763526 -0.5056117530
C -1.6740968519 -0.0168544271 -0.4783283289
C -0.6957334832 -1.0103033046 -0.5047362247
C 0.6497325041 -0.6741871735 -0.4890685945
C 1.0173557608 0.6673317375 -0.4357510210
C 0.0528388587 1.6625144501 -0.4063863997
C -1.2978557436 1.3264048520 -0.4316040667
O 2.3417647116 1.0919293465 -0.4506770725
C 3.3137086550 0.1828844479 -0.1202653594
C 3.5083452127 -0.2445025411 1.1980332126
C 4.5429895971 -1.1167692214 1.5160105305
C 5.3894994129 -1.5487308277 0.5019639837
C 5.2252023227 -1.1280368015 -0.8120767645
C 4.1796316039 -0.2638976054 -1.1122690533
Cl 6.6965807052 -2.6431570878 0.9010734408
Cl 2.4607965873 0.3332759756 2.4621324507
H -5.4483041405 -1.0070320939 0.1226383666
H -5.3119574752 -0.7282825711 -1.6284552232
H -6.1592230874 0.4574483715 -0.6059935739
H -3.8836438302 1.2639801631 -1.2203322490
H -3.7384575941 1.0226161549 2.7249973365
H -1.0069272268 -2.0484405442 -0.5392726902
H 1.4048071209 -1.4522813910 -0.5128899688
H 0.3629513822 2.7003503890 -0.3590108029
H -2.0301332748 2.1246965056 -0.4046351739
H 4.6888683225 -1.4405421951 2.5388367295
H 5.8994093119 -1.4731805890 -1.5863038904
H 4.0177369609 0.0822533477 -2.1272913597
