58
CONF11
C 5.7046239134 -1.6356544931 0.4478922145
C 5.6840601078 -1.0746320711 -0.9759430334
C 4.7270893082 -1.8718371548 -1.8659691351
C 5.3802616028 0.4331018386 -0.9994020821
C 4.0025343204 0.8601863077 -0.4839011439
C 3.8362256286 2.3804742385 -0.5484488257
C 2.5291543390 2.9104785231 0.0444156865
C 1.2704763462 2.4397334556 -0.6854332134
C 0.0235462557 3.1767098337 -0.1984119603
C -1.2694702724 2.6695703449 -0.7998357100
O -1.5206406554 1.2590271581 -0.4529237890
P -1.8730200326 0.8624719087 1.0473305055
O -2.5243456325 1.9056974640 1.8671540823
O -0.5300788935 0.3577831177 1.7731324208
C 0.2946139663 -0.7034758312 1.3922575863
C 0.2619226520 -1.2921632048 0.1320481002
C 1.1358600512 -2.3444270812 -0.1348555431
C 2.0287307900 -2.7943447550 0.8328093001
C 2.0533184926 -2.1812323868 2.0835883040
C 1.1855684253 -1.1329708199 2.3700070146
O -2.6487595362 -0.5338136997 0.8572578368
C -3.6971361729 -0.7001738412 -0.0564373425
C -3.6685625950 -1.8547213456 -0.8265639209
C -4.7086788624 -2.0888969048 -1.7216393246
C -5.7530014923 -1.1743412235 -1.8431286990
C -5.7597403442 -0.0230897548 -1.0593828148
C -4.7315093091 0.2225362839 -0.1517633440
H 6.3998859052 -1.0760104786 1.0836578144
H 4.7116277866 -1.5862675027 0.9067848928
H 6.0153992139 -2.6862592503 0.4472676049
H 6.6956081230 -1.1914354585 -1.3910197800
H 5.0293033774 -2.9236269692 -1.9169352036
H 4.7099303266 -1.4724915778 -2.8863039160
H 3.7053742407 -1.8415065478 -1.4733234913
H 6.1489728701 0.9504925408 -0.4080384787
H 5.4913058366 0.7939475981 -2.0318958088
H 3.8613790061 0.5293150478 0.5545141830
H 3.2153837884 0.3752380230 -1.0746039212
H 4.6776643103 2.8464942832 -0.0181176952
H 3.9146680124 2.7054846247 -1.5958154431
H 2.4599873250 2.6166182311 1.1016461428
H 2.5555046802 4.0086704958 0.0297173837
H 1.1396829051 1.3606006282 -0.5423860264
H 1.3865040036 2.6017533866 -1.7663143718
H -0.0416151355 3.1318444461 0.8974640693
H 0.0972617271 4.2417240361 -0.4561206832
H -1.2309256019 2.6623095912 -1.8917289216
H -2.1303562256 3.2572769370 -0.4687760959
H 1.1138231816 -2.8092388002 -1.1154857684
H 2.7074056624 -3.6112175504 0.6110469012
H 2.7495573087 -2.5186513531 2.8447785821
H 1.1865099290 -0.6468014726 3.3395964748
H -2.8436162557 -2.5509575837 -0.7187909082
H -4.6976493582 -2.9893860160 -2.3273656765
H -6.5727695849 0.6907057999 -1.1446775519
H -4.7375781371 1.1098752742 0.4727204807
H -0.4221909649 -0.9474410715 -0.6332326216
H -6.5601918479 -1.3599039724 -2.5438627310
