66
CONF7
C 2.3450662092 -1.5701352557 -3.0940905459
C 3.2984881095 -0.7298977784 -2.2677326820
O 2.6525591747 -0.2522807835 -1.0584603245
C 1.8526688626 0.8401292811 -1.1837151187
O 1.7618354925 1.4648704722 -2.2341521989
C 1.1720216671 1.1380957821 0.0733743741
C 0.4487545868 2.2867933430 0.1958993642
N -0.1370655774 2.5898249201 1.4024594723
C 0.0198527257 1.8609101603 2.5571464182
C 0.7162635430 0.6896379983 2.5161607400
C 1.2634051697 0.1252901304 1.2101490078
C 0.5812700436 -1.1997107132 0.8541620427
C 1.3521271890 -2.3642112021 0.7969096788
C 0.7983328750 -3.5924305098 0.4621832860
C -0.5612971579 -3.6764846238 0.1666397612
C -1.3423716670 -2.5305242869 0.2089748568
C -0.7885899097 -1.2876045700 0.5495858760
C -1.7044608044 -0.1339381985 0.6405001300
C -2.3159065922 0.5004356214 -0.3690964035
C -2.0411845176 0.2474424281 -1.7985475370
O -1.2193180425 -0.5361121027 -2.2383406831
O -2.8314075698 1.0458597355 -2.5497446950
C -2.7721968206 1.0162806060 -4.0343097165
C -3.8211952689 2.0504098758 -4.4251722095
C -1.3903406958 1.4478395499 -4.5116731531
C -3.1661354359 -0.3662871095 -4.5423339929
C 0.9239098357 -0.0771845519 3.7439556970
O 0.3322318246 0.0719248436 4.8059904126
O 1.8904893928 -1.0177573055 3.5758757865
C 2.1067688085 -1.9379643511 4.6788964789
C 1.1008088945 -3.0712055550 4.6381866842
C -0.6139754399 2.4842334280 3.7634253928
C 0.2026906267 3.3080326345 -0.8712968054
H 2.8751215351 -1.9736500179 -3.9627339267
H 1.5027322924 -0.9707264924 -3.4486151384
H 1.9594009385 -2.4066368753 -2.5032970506
H 3.6796292566 0.1240050675 -2.8346837954
H 4.1390839502 -1.3252769515 -1.9032634651
H -0.6466509116 3.4575899528 1.4659476984
H 2.3187666195 -0.1208736656 1.3614410965
H 2.4123920485 -2.2928481862 1.0203184014
H 1.4231464208 -4.4798684530 0.4299916478
H -1.0103704982 -4.6287896705 -0.0979483590
H -2.4016028312 -2.5831600934 -0.0244315855
H -1.9341899620 0.2080199338 1.6494882703
H -3.0198752756 1.2974630243 -0.1514993950
H -3.5618081582 3.0326859906 -4.0195035700
H -3.8707211667 2.1247269187 -5.5149232719
H -4.8066982188 1.7605590303 -4.0491661179
H -1.1254489327 2.4175407744 -4.0790483197
H -1.4155409627 1.5547948658 -5.6005992726
H -0.6252486498 0.7166515594 -4.2483158069
H -2.4090660083 -1.1142519597 -4.3044869022
H -4.1234871788 -0.6700901923 -4.1076309125
H -3.2835751104 -0.3185936679 -5.6293132665
H 2.0591618035 -1.3876838500 5.6223528193
H 3.1245086780 -2.3045383503 4.5254042410
H 0.0832253203 -2.6954153999 4.7741979793
H 1.1578301363 -3.6009287962 3.6827977301
H 1.3183479586 -3.7800823074 5.4433995952
H 0.0817859444 2.5086949411 4.6031505138
H -1.4784643966 1.8978692607 4.0872404773
H -0.9428232240 3.5023279020 3.5398156248
H -0.3642790519 4.1527765678 -0.4716348014
H 1.1420445092 3.6725199314 -1.2906984456
H -0.3580826405 2.8650485008 -1.6988063585
