37
CONF542
C -3.2387831318 1.2867862852 -3.0001736083
C -3.1405195856 0.0686892843 -2.1084999867
O -1.7446618286 -0.2868134670 -1.8714365307
P -1.0265472526 0.3602903335 -0.6037790306
O -1.1795183363 1.8146176200 -0.3854304712
O -1.5132211164 -0.5675210941 0.6050970027
C -1.6741543231 -0.0010784744 1.9487255616
C -1.3848278068 -1.0995201282 2.9415215185
O 0.4704490810 -0.1464734690 -0.9674531483
P 1.7649882754 -0.1407125641 0.0338182057
O 1.4017000179 0.2345026578 1.4191821001
O 2.3809299421 -1.5823255749 -0.2261887992
C 1.6528642805 -2.7355490456 0.3012513969
C 2.1878263482 -3.1135477350 1.6645252680
O 2.8479804928 0.7387059952 -0.7139695612
C 3.0204574634 2.1477483682 -0.3488924210
C 2.0582581859 3.0296981644 -1.1120722852
H -2.7197252070 1.1097666303 -3.9459397324
H -2.7970983709 2.1568707061 -2.5088846909
H -4.2913057103 1.4987203446 -3.2154625693
H -3.6485915208 0.2287727856 -1.1493233814
H -3.5737075572 -0.8170842017 -2.5805258242
H -2.7054038408 0.3600781180 2.0240038083
H -0.9873682180 0.8387335681 2.0706365589
H -2.0386414100 -1.9611607396 2.7787920775
H -0.3415195861 -1.4132891311 2.8569716599
H -1.5506935483 -0.7250555265 3.9565618996
H 1.8149796539 -3.5269258326 -0.4350145426
H 0.5792442483 -2.5117304343 0.3354119420
H 2.0414604140 -2.2944778709 2.3732252667
H 1.6581394025 -3.9980552484 2.0334606819
H 3.2548795118 -3.3445436643 1.6086638651
H 2.8930601138 2.2455446708 0.7340127473
H 4.0606958367 2.3592412867 -0.6078182065
H 2.2801487813 4.0782328237 -0.8869034791
H 2.1677638593 2.8771891886 -2.1894189919
H 1.0204632196 2.8316750903 -0.8286739241
