27
CONF51
C -2.9674155126 0.0721638058 0.4819432648
C -3.9015812659 0.0783640526 -0.7286633273
O -3.9136950342 -1.1512144315 -1.4538398082
C -1.5193203908 -0.1913320424 0.1288863893
C -0.5397128564 0.2159543237 1.2668400603
C 0.9664282587 -0.2267755172 1.1688184181
C 1.7518972743 0.1782253061 -0.1207443152
C 3.3101302885 0.0840954269 0.0464959550
C 4.0861429325 0.0249116131 -1.3112647485
F 3.6546891165 0.9869650147 -2.1390071194
F 3.9281523300 -1.1650987966 -1.9004932993
F 5.3907055772 0.2128508659 -1.0715843496
F 3.6338948265 -1.0257082702 0.7488781867
F 3.7418724083 1.1724657193 0.7189107116
F 1.3761086422 -0.6405843971 -1.1309641991
F 1.4496773797 1.4542445515 -0.4489753194
F 1.5944344751 0.3448681778 2.2316105092
F 1.0282544160 -1.5688826667 1.3075236830
F -0.5735348742 1.5644802550 1.4041712980
F -0.9933498504 -0.3360546523 2.4261091215
F -1.1476195777 0.5122386317 -0.9886864583
F -1.2990639728 -1.5173010693 -0.1418478258
H -3.0325385757 1.0507656592 0.9707392542
H -3.2785907270 -0.6832062693 1.2101589138
H -4.9063989283 0.3365500032 -0.3683245352
H -3.5919982569 0.8476575172 -1.4405228494
H -4.2475685102 -1.8412664190 -0.8661675208
