47
CONF53
C 5.5709248851 -1.6533204688 1.9765438247
C 4.9591947620 -0.8250235595 0.9195633746
C 3.6648948809 -0.5499513255 0.5573042034
C 3.7989107075 0.3404429776 -0.5528212437
N 5.0577318139 0.5820107039 -0.8357266413
O 5.7955645237 -0.1706890486 0.0935385661
C 2.7366774546 0.9849747871 -1.3439651290
C 2.5303423171 0.6378027109 -2.6805569013
C 1.5069600830 1.1602769214 -3.4509525260
C 0.6454717567 2.0796996369 -2.8639053047
C 0.8114101612 2.4731578930 -1.5386519018
C 1.8510149354 1.9260251244 -0.8002449073
Cl 2.0622200824 2.4248939077 0.8645453981
F 3.3540488036 -0.2750343937 -3.2312497430
C 2.4599289960 -1.0549269463 1.2396575722
O 2.4796679405 -1.4066985566 2.4191396740
N 1.3335542908 -1.1066583711 0.4692937207
C 0.0414766946 -1.3799636841 1.0158810286
C -0.9715022359 -0.1911421274 1.1204729167
N -1.7863730787 -0.8532075507 0.0894207707
C -0.9980133264 -1.9908937464 0.0450138321
O -1.1398160025 -3.0457641835 -0.5261915083
C -3.2299898803 -0.7824277844 0.1984545340
C -3.5509208457 0.1285147590 1.4468665836
S -2.0773153362 -0.1368775289 2.5796591611
C -4.8130132042 -0.3313148777 2.1658562532
C -3.6396827390 1.6079767632 1.0688952111
C -3.8613707936 -0.2268311083 -1.0711236772
O -3.2770903876 0.3829219801 -1.9362010000
O -5.1785936720 -0.4974235221 -1.0928433057
H 5.7089789221 -1.0560016074 2.8848254966
H 4.9143183283 -2.4885585495 2.2227852554
H 6.5462846958 -2.0215349686 1.6508497668
H 1.3930646243 0.8431951706 -4.4810640658
H -0.1675296993 2.5002244773 -3.4455939705
H 0.1447369094 3.1967949213 -1.0853507005
H 1.3846810924 -0.8130849527 -0.4957492846
H 0.1352857679 -1.9505281495 1.9428461428
H -0.5830825304 0.7924370560 0.8426798724
H -3.6329845740 -1.7876062714 0.3726085095
H -4.9725749936 0.2705116110 3.0649695919
H -4.7475335047 -1.3852385906 2.4490024757
H -5.6782914684 -0.1940839290 1.5105976470
H -3.7665646743 2.2082524152 1.9724913846
H -2.7449717840 1.9529413214 0.5427748209
H -4.5080864748 1.7819369438 0.4225428447
H -5.5620446947 -0.1002067928 -1.8940894473
