60
CONF17
C -2.7112601286 3.0416145005 0.0667279698
Si -1.2938912881 1.8613691988 0.3566582607
C -1.1273649791 1.3921445458 2.1496588993
O 0.0867766435 2.6114395895 -0.1197387139
Si 1.3027598196 2.5816905819 -1.2290490534
C 2.0678678916 4.2805907733 -1.2393034755
C 0.6576421267 2.0832770431 -2.9041167589
O 2.4402990007 1.4821555742 -0.7694872861
Si 2.9839229546 0.8240009374 0.6398771593
C 4.6751530559 0.1181320637 0.2926734773
C 3.0017726479 2.1009726907 1.9963356735
O 1.9668064140 -0.3778847174 1.1172156913
Si 1.4457235920 -1.8427265142 0.5805789868
C 2.6216416126 -3.1635457767 1.1733543588
C 1.2838501037 -1.8172614019 -1.2790270487
O -0.0172868301 -2.0995202414 1.2864966753
Si -1.4739077310 -2.7690950000 0.9287692879
C -1.2732988536 -4.5941793098 0.6045025442
C -2.6110954210 -2.4278375758 2.3651178717
O -2.0754668774 -2.1025365236 -0.4517017202
Si -2.5509995759 -0.6478501076 -1.0513637827
C -4.2659914385 -0.2616668694 -0.4179925824
C -2.4933429884 -0.7615848342 -2.9074619422
O -1.4878909467 0.5097949470 -0.5659847440
H -2.8334809155 3.2494261102 -1.0020109848
H -3.6581834161 2.6450714725 0.4464401445
H -2.5200840839 3.9943538202 0.5719454256
H -0.3732674597 0.6070973337 2.2695716967
H -2.0760639033 1.0224170418 2.5538665830
H -0.8263287080 2.2567754549 2.7508312605
H 1.3483383849 5.0365901908 -1.5703571432
H 2.9356455300 4.3211292157 -1.9055902851
H 2.4006657047 4.5547593524 -0.2325098157
H -0.0741977883 2.8094230224 -3.2741040439
H 1.4715481298 2.0204708137 -3.6338211330
H 0.1670382270 1.1064120784 -2.8562037714
H 5.3788102946 0.9060651564 0.0048124665
H 4.6346518636 -0.6039853933 -0.5302062577
H 5.0786450634 -0.3936892251 1.1726145475
H 2.0014093342 2.5244679939 2.1354095196
H 3.3147561869 1.6563615562 2.9466513396
H 3.6897108866 2.9204355089 1.7627442315
H 2.6945153892 -3.1449053358 2.2658736347
H 3.6274214264 -3.0185946489 0.7648711807
H 2.2778213941 -4.1602098958 0.8756972488
H 0.6404404469 -0.9844378825 -1.5787820151
H 2.2570736006 -1.6794497621 -1.7625086258
H 0.8420789115 -2.7439985009 -1.6609119419
H -0.6201934778 -4.7674332866 -0.2577380708
H -0.8332728411 -5.1015690495 1.4692717424
H -2.2377965978 -5.0652099891 0.3882675471
H -3.6237403165 -2.7931795326 2.1648754558
H -2.6688820490 -1.3536778248 2.5677353849
H -2.2466351123 -2.9151667323 3.2753597824
H -4.6681728905 0.6516342244 -0.8684251858
H -4.9514412999 -1.0829069986 -0.6532048297
H -4.2672894743 -0.1317954554 0.6701218759
H -3.1859423708 -1.5253953948 -3.2757579505
H -1.4877593904 -1.0323833372 -3.2460649404
H -2.7602572985 0.1936053514 -3.3715032440
