49
CONF19
C -3.0719738946 2.5680432644 -1.6154364685
C -2.9512648032 2.0573159589 -0.1834526498
C -1.8102003244 2.7790660591 0.5927589481
C -0.4446376356 2.5428806337 0.0076783066
C 0.3181844927 1.4255924138 0.3768639500
C 1.5515018887 1.1630529456 -0.2027715407
C 2.0631423244 2.0242256752 -1.1789130503
C 1.3306158272 3.1531428323 -1.5543028120
C 0.0923539361 3.3950400749 -0.9590757225
O 3.2812531438 1.6835246866 -1.6944683028
C 3.8402954998 2.5481537158 -2.6913789201
N -2.8162342848 0.5949927880 -0.2141940407
C -2.9609808522 -0.0747261309 1.0778220006
C -2.9084139479 -1.5933145546 0.8469826232
C -1.5213283286 -1.9999953349 0.3764589516
C -0.4776586742 -2.0373840576 1.3039240053
C 0.8313678515 -2.2883356682 0.9021655470
C 1.0993044802 -2.5567252416 -0.4513552737
C 0.0574851208 -2.5616409781 -1.3704597760
C -1.2432930582 -2.2747977842 -0.9601086817
O 2.4018869513 -2.7972803640 -0.7842073908
N 1.9093570724 -2.2810393068 1.8097186377
C 2.0263889732 -1.4461434778 2.8745044020
O 2.9733872945 -1.4621230141 3.6545483796
O -3.9335767634 -1.9802170574 -0.0673747945
H -3.9493198103 2.1311698613 -2.1009160001
H -2.1857328925 2.2973771419 -2.2000748064
H -3.1665393034 3.6583675563 -1.6329680421
H -3.8855497957 2.2809455299 0.3499451203
H -2.0363779194 3.8514295800 0.5946905503
H -1.8288654290 2.4448288909 1.6360218422
H -0.0504866665 0.7488784705 1.1432997845
H 2.1345344250 0.2965920645 0.0952605378
H 1.7066336124 3.8463066397 -2.2970156773
H -0.4671110736 4.2766154397 -1.2611484306
H 3.1912183316 2.6042572470 -3.5733142614
H 4.7960949442 2.1021226793 -2.9679192056
H 4.0062674994 3.5554766631 -2.2913023473
H -1.9061847898 0.3607672624 -0.6095487246
H -3.9406950382 0.1875793952 1.4971434580
H -2.1964122309 0.1941717921 1.8254984634
H -3.1219274074 -2.0952097610 1.7986287909
H -0.6902840517 -1.8748732453 2.3569066384
H 0.2704305392 -2.7748011658 -2.4148399734
H -2.0442349620 -2.2760942801 -1.6913248879
H 2.4645235617 -2.9950644262 -1.7286718652
H 2.7099027555 -2.8643892167 1.5955241870
H 1.1844894399 -0.7391605222 2.9736574376
H -3.9926493648 -1.2500447418 -0.7061441906
