52
CONF49
O 4.2000430122 -1.2155197108 -2.3482079913
C 2.8741032932 -1.2950112922 -1.8033916535
C 2.7307884832 -0.5076138690 -0.4997222013
C 3.8011605670 -0.5808580762 0.4172188020
C 3.7045125302 0.1414695163 1.5792630874
C 2.5904334110 0.9232487471 1.8610227660
C 1.5266775315 0.9979341612 0.9988363349
C 1.5953018564 0.2665709387 -0.2070082587
C 0.3959461900 0.3878303007 -1.1556428461
C -0.9263229443 0.3180592979 -0.4147218943
C -1.7998203309 1.4011801366 -0.4546201172
C -3.0156750215 1.3384588608 0.2353727415
O -3.9394677990 2.3376988533 0.2624165520
C -3.6325237143 3.5380095482 -0.4600816288
C -3.3535023032 0.1884188722 0.9606986754
O -4.5664194146 0.1058841530 1.6030455864
C -4.5196045803 0.6105439275 2.9541529739
C -2.4587121262 -0.8927069586 1.0041039812
O -2.8682353811 -1.9568722450 1.7474577378
C -1.9860121377 -3.0849106005 1.8201904077
C -1.2466198693 -0.8274264741 0.3152561160
C 0.5200224511 -0.6805870560 -2.2340609418
C -0.3425128182 -0.5715083853 -3.4716642953
O 0.3429852418 -1.0881261619 -4.5269872348
C 1.6801675453 -1.5209942759 -4.1013169972
C 1.9202315187 -0.7311089293 -2.8242770012
O -1.4622806500 -0.1367912563 -3.6010768172
O 2.7286181480 1.5018314568 3.0988072986
C 4.1022617221 1.2605881053 3.4717369015
O 4.5867636684 0.1921596382 2.6309127954
H 4.7324371800 -1.9260039003 -1.9719516746
H 2.6215429918 -2.3511882560 -1.6184441042
H 4.6793274748 -1.1818317902 0.2093281345
H 0.6500643140 1.5916142545 1.2356647441
H 0.4529809459 1.3685306398 -1.6479993205
H -1.5296640220 2.2799859765 -1.0272309313
H -2.7254894647 4.0121936846 -0.0676131494
H -3.5107499970 3.3328671280 -1.5298606081
H -4.4870144985 4.1978518805 -0.3079258167
H -5.5242862576 0.4925848539 3.3647053477
H -3.8043860838 0.0351381032 3.5535408988
H -4.2395255125 1.6703316254 2.9582990207
H -1.0295123243 -2.8072885435 2.2782240860
H -2.4956530055 -3.8159305289 2.4483576912
H -1.8103503499 -3.5108446549 0.8255529100
H -0.5410526715 -1.6487030701 0.3591291642
H 0.2893632414 -1.6682369202 -1.8003073433
H 2.3654608129 -1.2943341839 -4.9178779771
H 1.6472204693 -2.6014309250 -3.9185988274
H 2.2392674050 0.2897141348 -3.0795354133
H 4.6925034391 2.1671581772 3.2801638613
H 4.1452089396 0.9479720974 4.5166660795
