39
CONF463
C 4.9767219339 2.7689560629 2.8404678434
C 5.4678793061 2.0071631095 1.6118277474
C 4.8661514016 0.6068319646 1.5102194692
C 5.3856392703 -0.1842169866 0.3085274685
C 4.6960151508 -1.5504212914 0.1080511581
C 5.6816193910 -2.6481293829 -0.3251613588
C 6.6078429609 -3.0989898795 0.8020974009
C 3.5904331924 -1.4704381337 -0.9313098823
O 2.6920385306 -0.3889591867 -0.5586765505
C 1.7356391752 -0.0870685054 -1.4572313348
O 1.5461319634 -0.6846267278 -2.4879173762
C 0.9943807315 1.1403903315 -1.0202807974
C 1.7534322890 2.1937134716 -0.5174066142
C 1.1635986572 3.4026734473 -0.1891722906
C -0.2150656716 3.5802086528 -0.3375226257
C -0.9942027460 2.5125265098 -0.8190623231
C -0.3886548608 1.2952623105 -1.1639629769
Br -1.4428198045 -0.1659350815 -1.7479542567
Br -2.8662102230 2.7246573859 -0.9943718435
Br -1.0082525571 5.2341806294 0.1118102165
Br 2.2996809562 4.7783379208 0.4609993987
H 5.4010792855 3.7765036046 2.8843000717
H 3.8859384030 2.8673541497 2.8282078258
H 5.2544444842 2.2464096939 3.7621398037
H 5.2197897041 2.5758473793 0.7045724790
H 6.5634048149 1.9327390992 1.6334756015
H 5.0931367833 0.0463500045 2.4283081613
H 3.7728364799 0.6807714420 1.4621057003
H 6.4658342154 -0.3308897584 0.4303302667
H 5.2678628711 0.4146380137 -0.6061359170
H 4.2435111739 -1.8581696868 1.0621907910
H 6.2730088268 -2.2785615613 -1.1739064888
H 5.1220439970 -3.5177999789 -0.6943091271
H 7.1946950866 -2.2664218333 1.2026816918
H 6.0311701491 -3.5271331202 1.6285661077
H 7.3112205123 -3.8602212043 0.4527541183
H 3.0108061160 -2.3979888392 -0.9911254868
H 3.9961420815 -1.2548650650 -1.9275004101
H 2.8217241320 2.0671150699 -0.3961067016
