43
CONF89
C -3.6305663555 -0.1406260715 2.5371126478
Si -1.8422763152 -0.4754918761 2.1626680330
C -0.6978997088 -0.0628519184 3.5708457297
O -1.7667943005 -2.0889326349 1.7669894524
O -1.3412468865 0.4437731895 0.8690954639
Si -1.5919965318 0.4239429739 -0.7765796108
C -1.3574995929 2.1702812901 -1.3734923060
C -3.2731387714 -0.2636093880 -1.1740665948
O -0.4644647466 -0.5825237685 -1.4363628484
Si 1.0276049817 -0.4932864710 -2.1452139233
C 1.6857585022 -2.2312625784 -2.2472443079
C 0.9019983953 0.3107438894 -3.8192796810
O 2.0171927549 0.4521967231 -1.2211459670
Si 2.4225523886 0.6377712184 0.3732969835
C 2.4965859526 -1.0402778487 1.1892245357
C 4.0335038166 1.5594012587 0.4493543751
O 1.3083331961 1.6104917890 1.1279427387
H -3.9405448081 -0.6781826037 3.4397229460
H -4.2744783151 -0.4602314752 1.7114591728
H -3.7946968812 0.9290284852 2.7046292973
H -0.9970555862 -0.5997090327 4.4772951297
H 0.3355288985 -0.3404822327 3.3354620281
H -0.7184718173 1.0109814367 3.7875568235
H -0.8861916769 -2.4668844284 1.6561488902
H -2.0561197787 2.8439221618 -0.8653128158
H -0.3387815803 2.5186903744 -1.1705290220
H -1.5375022906 2.2428696804 -2.4512487777
H -3.4143922202 -0.2977338970 -2.2600853591
H -4.0659447801 0.3603734427 -0.7483325011
H -3.3891067788 -1.2809389334 -0.7848931795
H 1.7002360936 -2.7060833634 -1.2608075780
H 1.0597004424 -2.8399393583 -2.9089840625
H 2.7061411191 -2.2363695914 -2.6452807847
H 1.8798966568 0.3209796292 -4.3132054714
H 0.2035529353 -0.2370984401 -4.4610210535
H 0.5526341986 1.3451993520 -3.7366356027
H 1.5278094626 -1.5506881708 1.1307547344
H 3.2414854835 -1.6786148101 0.7012425676
H 2.7657941434 -0.9454339820 2.2467900541
H 3.9468445896 2.5314873207 -0.0483806787
H 4.3369758882 1.7324236022 1.4872295049
H 4.8275160067 0.9919330480 -0.0473135909
H 0.4015237265 1.2607621894 1.1705941323
