46
CONF42
C -4.9826347768 -1.1914594412 1.4998596996
C -3.6906580299 -1.8719213897 1.8866413845
C -2.6361484251 -2.1335964365 0.8593222768
C -2.3862831722 -1.0811065525 1.9665170941
C -2.2600047056 0.3292574288 1.5630894491
O -2.9068354037 0.9022852938 0.7067080172
O -1.2651939104 0.9283096199 2.2686061818
C -0.9066711452 2.2811751445 1.8437830095
C 0.0086597569 2.2301616157 0.6521416855
C 1.3398590894 1.8499615394 0.8302859585
C 2.1901279560 1.7722673308 -0.2672830374
C 1.7343981077 2.0741560438 -1.5499650098
C 0.4048149595 2.4472870080 -1.7190104123
C -0.4591825835 2.5257859772 -0.6296128572
O 3.5120045301 1.4704746896 0.0018380312
C 4.2664845615 0.8003474531 -0.9481400539
C 5.5677675374 1.2478669537 -1.1505724289
C 6.3940504036 0.5569425537 -2.0333814514
C 5.9208759920 -0.5639291357 -2.7118905294
C 4.6141931540 -0.9997431329 -2.4960137339
C 3.7800215561 -0.3246360667 -1.6101698195
C -2.7879841860 -1.7202663984 -0.5491399780
C -1.7520715004 -1.4717652594 -1.3472077174
Cl -1.9233549872 -1.0125254796 -3.0182391612
Cl -0.1037409326 -1.5363971149 -0.7908289119
C -3.8566857426 -2.9181541366 2.9691144229
H -5.6931705041 -1.9453778247 1.1431350198
H -5.4207248889 -0.7044608524 2.3774085951
H -4.8476565790 -0.4372995903 0.7253529704
H -2.0281979556 -3.0247196579 1.0051791100
H -1.6909659646 -1.3878284933 2.7401911356
H -0.4007355922 2.7027400195 2.7143279320
H -1.8147233390 2.8476961296 1.6275813111
H 1.7252745230 1.6186596531 1.8189515401
H 2.4082638285 2.0243829964 -2.3981121423
H 0.0437912719 2.6860513448 -2.7145072852
H -1.4957474725 2.8116997898 -0.7706476091
H 5.9190023644 2.1245311861 -0.6164075514
H 7.4104961977 0.9027346838 -2.1934603904
H 6.5660966464 -1.0968727587 -3.4024115296
H 4.2398167428 -1.8775494785 -3.0135239741
H 2.7652293743 -0.6642620320 -1.4337522464
H -3.7812597001 -1.6188002919 -0.9760804942
H -4.5560190080 -3.6919913076 2.6343027981
H -4.2603550765 -2.4630996855 3.8798081847
H -2.9042216379 -3.3970119274 3.2132361145
