44
CONF20
C -0.9185538337 -1.4115614152 2.9264826143
C -1.1359919367 -0.4156130649 1.7940361543
C -2.3674318322 -0.7621603717 0.9560365043
O -3.2536257063 -1.4867502744 1.3376143802
O -2.3694444540 -0.0699076396 -0.1987928089
C -3.4574238383 -0.3644206227 -1.1349307129
C -4.6559686868 0.5021255201 -0.7949348707
C -2.8869535312 -0.1025874983 -2.5141186506
N 0.0633256625 -0.2466183226 0.9531489000
C 0.9735999981 0.7858147764 1.3016214104
C 0.5588400782 2.1189212007 1.2719826147
C 1.4435540752 3.1304820982 1.6187746333
C 2.7426204764 2.8093806041 1.9784557074
C 3.1672437392 1.4841219447 2.0137534851
C 2.2751823157 0.4695505001 1.6905970650
Cl 4.7994732518 1.1085788302 2.4791217054
F 3.5958807865 3.7938763318 2.2973330782
C 0.3332162198 -1.2436419147 0.0383239196
O -0.3675921497 -2.2487421173 -0.0187734057
C 1.4604810281 -1.0409183968 -0.9215151080
C 2.2483590303 -2.1487775407 -1.2400511529
C 3.2710168745 -2.0319996589 -2.1728763774
C 3.4916363444 -0.8174233417 -2.8174862544
C 2.6846953286 0.2797893911 -2.5282380137
C 1.6775824175 0.1737398973 -1.5764676294
H -1.8072696927 -1.4533800523 3.5592046753
H -0.7361898198 -2.4078719025 2.5209058095
H -0.0639296802 -1.0977092528 3.5332694275
H -1.3462778060 0.5730218814 2.2223890807
H -3.7087888737 -1.4228921777 -1.0127579092
H -5.4709234565 0.3002564734 -1.4969674902
H -4.3926866361 1.5623354252 -0.8684843952
H -5.0114760074 0.2881156663 0.2156048762
H -2.0072323810 -0.7273930101 -2.6896598433
H -2.6004417477 0.9486614859 -2.6202020012
H -3.6376399397 -0.3338572386 -3.2755580240
H -0.4494034097 2.3602695109 0.9519669172
H 1.1495759953 4.1738850225 1.5979229462
H 2.5985021352 -0.5639703072 1.7291588307
H 2.0425913569 -3.0955153865 -0.7518471138
H 3.8917945832 -2.8913900237 -2.4043605198
H 4.2860360832 -0.7282498329 -3.5514308756
H 2.8411307765 1.2212910855 -3.0446259034
H 1.0489079684 1.0291344273 -1.3536256808
