51
CONF49
C 1.5143964514 -0.1232899398 2.2251744485
C 2.1828882799 -0.6842084871 0.9977112586
C 1.7313667258 -1.8910813959 0.4279620728
C 2.3854426490 -2.4459280501 -0.6726421572
C 3.5008779363 -1.8247779858 -1.2206498432
C 3.9466068145 -0.6272434255 -0.6781244043
C 3.2949398345 -0.0411238867 0.4146849378
C 3.8166619131 1.2519821321 0.9240948297
C 2.9897668158 2.3774802915 1.0303179219
C 3.4990300930 3.5938681224 1.4740757205
C 4.8438825881 3.7062710704 1.8230280715
C 5.6770398273 2.5947766239 1.7172106729
C 5.1683455271 1.3792019687 1.2676540830
C 0.5553609733 -2.6288928313 1.0055119578
O -0.6615506342 -1.8170960943 0.9969750309
C -1.2922535148 -1.6997952694 -0.1916516867
O -0.9289708934 -2.2562803495 -1.2103605577
C -2.4738145677 -0.8203339669 -0.0529875375
C -3.0824059409 -0.2324338860 -1.3300314065
C -3.8538997795 -1.2562044390 -0.5169079776
C -4.0473512670 -2.6162959425 -1.1471860638
C -5.0175686639 -0.8174149673 0.3437242650
C -3.4384720966 1.1794454138 -1.3416595771
C -3.3724888809 1.9956078190 -2.3964270573
C -3.7499207240 3.4451770934 -2.3507501218
F -2.7129424276 4.2506997412 -2.6947412998
F -4.7602843168 3.7356205904 -3.2097996543
F -4.1537214811 3.8175181967 -1.1193739454
Cl -2.8351043676 1.4891488236 -3.9833570094
H 2.2024285202 0.5077220539 2.7905391185
H 0.6421830829 0.4864396591 1.9656540912
H 1.1601257807 -0.9225867639 2.8809014708
H 2.0124760714 -3.3725980909 -1.0990902430
H 4.0097238948 -2.2618365472 -2.0739513512
H 4.8019273094 -0.1184947333 -1.1131418482
H 1.9437052984 2.3005522357 0.7494901692
H 2.8446357580 4.4575516607 1.5435686778
H 5.2397995888 4.6545502783 2.1729658700
H 6.7256353002 2.6721626527 1.9882546453
H 5.8199150983 0.5132111453 1.1931287777
H 0.6989012325 -2.8642798107 2.0626263012
H 0.3703931383 -3.5528336261 0.4538472231
H -2.4640391502 -0.1796816636 0.8227676270
H -2.6460530758 -0.6284622881 -2.2415543713
H -4.9745606823 -2.6148777060 -1.7297137305
H -3.2220824678 -2.8874490406 -1.8067555245
H -4.1386595948 -3.3801562168 -0.3669269040
H -4.8298045822 0.1232661604 0.8651943378
H -5.2202821707 -1.5851220824 1.0975905316
H -5.9156862659 -0.7020172630 -0.2728242504
H -3.7865387616 1.6240490058 -0.4140461769
