44
CONF141
C 3.8466308636 -0.3595521905 -2.4950217203
C 3.4841508395 0.5055423299 -1.2870249451
C 3.9748911672 -0.1316864336 0.0693495128
N 2.9133879199 -0.9987045033 0.5537666649
C 1.6662874555 -1.0599228719 -0.2381156073
S 1.6165387224 0.5582798563 -1.0944618783
C 0.8732144691 -1.1594298279 1.1054355570
C 2.2347875917 -0.8036672803 1.7514069728
O 2.6117195259 -0.4196474578 2.8323503404
N -0.2069041845 -0.2676090322 1.3570189963
C -1.4709813934 -0.6913216380 1.6063643979
O -1.7982476639 -1.8761451338 1.6537764888
C -2.4906955924 0.4299735546 1.8659468239
C -3.7758834372 0.1540152300 1.1121220378
C -3.7545739983 -0.0372713258 -0.2739601251
C -4.9265538762 -0.2309231703 -0.9909789693
C -6.1525220240 -0.2365465214 -0.3201559696
C -6.1939706044 -0.0503174181 1.0613777185
C -5.0072079646 0.1428717598 1.7650507002
O -7.2777372715 -0.4325828800 -1.0708253128
N -1.9164356663 1.7638697459 1.6112823930
C 5.2843768190 -0.8864992762 -0.1121432530
O 6.3105817037 -0.0224707202 -0.1973672223
O 5.3976581662 -2.0882415728 -0.1849295379
C 3.9983195513 1.9294545227 -1.4598054728
H 3.4887237290 -1.3875240956 -2.3897344157
H 4.9348439131 -0.3847073273 -2.6272030841
H 3.4083066949 0.0723284950 -3.3974587387
H 4.1416017169 0.6687116593 0.8008904783
H 1.5907581766 -1.9037388265 -0.9271366071
H -0.0556948759 0.7352799913 1.3692604414
H -2.7014567814 0.3611886951 2.9413550742
H -2.8047697794 -0.0394402195 -0.8046909505
H -4.9065324852 -0.3831124125 -2.0654658803
H -7.1478029523 -0.0583596833 1.5824357532
H -5.0463946499 0.2862972003 2.8416270639
H -8.0546073968 -0.4167300632 -0.4953739970
H -2.0183561278 1.9903441265 0.6252853761
H -2.4636294996 2.4569904793 2.1108991987
H 3.7332860991 2.5550317038 -0.6033231271
H 5.0872708132 1.9140803759 -1.5637611718
H 3.5803466734 2.3715227410 -2.3687023572
H 0.5546750860 -2.1850915141 1.3146326584
H 7.1294997290 -0.5253257937 -0.3525612655
