44
CONF28
C 5.0617560036 0.3523785680 -1.1725589629
C 3.5865946118 0.4334137654 -1.5496332020
C 2.8855621634 1.7665072868 -1.0894385487
N 1.4922832375 1.4412422637 -0.8954810686
C 1.1520785994 0.1074508736 -0.3889591816
S 2.6556481635 -0.9246177853 -0.6448113702
C -0.0313173582 0.0700250060 -1.4189693020
C 0.4509767366 1.4873954034 -1.8158076445
O 0.1397688453 2.3148723143 -2.6391759773
N -1.3776698877 -0.1280366689 -0.9837360844
C -1.9967476887 0.7421892315 -0.1423499971
O -1.4606387779 1.7847264520 0.2271731287
C -3.3997826358 0.3117198804 0.3287482323
C -3.2474288263 -0.7689805741 1.3816445278
C -3.9719128979 -1.9576476391 1.2968860980
C -3.8555562174 -2.9416531637 2.2740348316
C -3.0008817943 -2.7385514513 3.3581971661
C -2.2670566129 -1.5545750848 3.4579670216
C -2.3925819929 -0.5841855684 2.4733893212
O -2.8380257535 -3.6624349819 4.3507093044
N -4.2014532856 1.4234525196 0.8406432629
C 3.5317688893 2.3783977373 0.1439105937
O 3.0133398228 1.9064698606 1.2888471708
O 4.4319665489 3.1868495443 0.0877368679
C 3.4081374098 0.2792016486 -3.0603725425
H 5.2142161040 0.4200476279 -0.0922677226
H 5.6084932677 1.1666211958 -1.6593188858
H 5.4823125438 -0.5947999509 -1.5215252485
H 2.9776820894 2.5070484373 -1.8899234692
H 0.8489736613 0.0752220688 0.6607200573
H -1.8465323922 -0.9843122618 -1.2412683178
H -4.6414190585 -2.1198676413 0.4566973527
H -4.4258920168 -3.8635852742 2.1962976198
H -1.6027390665 -1.4100184123 4.3038181644
H -1.8110705454 0.3304285405 2.5573417237
H -3.3936500439 -4.4327226586 4.1710238160
H -3.7111229344 1.8398338264 1.6280807846
H -4.2410576628 2.1535071293 0.1339212658
H 3.9828811488 1.0553401715 -3.5788697469
H 3.7725216855 -0.6996010691 -3.3823014493
H 2.3596373909 0.3668750749 -3.3585482566
H 3.4809092537 2.3245936010 2.0331156002
H -3.9238774878 -0.1213102663 -0.5328204820
H 0.1933802721 -0.6221503711 -2.2354555782
