47
CONF2
C -7.0077593257 -1.7879349976 -2.0698663152
O -6.4057151235 -0.4686706488 -1.9489272750
P -4.8576515870 -0.3284973239 -1.5754791034
S -3.6008007781 -1.4737344665 -2.5131138348
O -4.6486412700 1.2517864096 -1.6891315259
C -4.4200216676 1.8633400958 -2.9908166359
O -4.9162323414 -0.5085607280 0.0361418017
C -3.7734934152 -0.7944416099 0.7872116515
C -2.7754530445 0.1620994228 0.9396538282
C -1.6757426442 -0.1320798765 1.7343450761
C -1.5719657720 -1.3823988438 2.3511104394
C -2.5837706932 -2.3297822762 2.1872737363
C -3.6967774001 -2.0321871499 1.4065229447
S -0.1995121177 -1.7770477528 3.4280901966
C 1.2147450059 -1.2553191269 2.4646633418
C 2.2952749416 -0.6868557387 3.1426293961
C 3.4462753546 -0.3285870815 2.4473207710
C 3.4892132661 -0.5222890561 1.0742326527
C 2.4222476885 -1.0820896871 0.3833305730
C 1.2859282874 -1.4636105784 1.0841384050
O 4.6452057400 -0.1982901454 0.3555650833
P 5.0185882613 1.3416075663 0.0091533524
S 3.5271613564 2.4964488513 -0.4536034880
O 6.1585135489 1.1312558697 -1.0914909454
C 5.7950290834 0.8633896224 -2.4748171415
O 5.8853044374 1.7332337168 1.2934555461
C 6.3261893645 3.1073874832 1.4851157040
H -8.0516087026 -1.6105687293 -2.3267438265
H -6.9387501528 -2.3210116632 -1.1175581889
H -6.5108589020 -2.3542122123 -2.8614926457
H -4.2801122895 2.9254909493 -2.7929982487
H -3.5231937714 1.4397740544 -3.4497695151
H -5.2894972842 1.7099722965 -3.6353382502
H -2.8670593604 1.1282903171 0.4552388911
H -0.8975238582 0.6114185915 1.8710580558
H -2.5002576354 -3.3037765385 2.6578480552
H -4.4889558862 -2.7586698474 1.2615577445
H 2.2405519560 -0.5189154057 4.2133065233
H 4.2929461901 0.1102407393 2.9637214520
H 2.4904242065 -1.2249995862 -0.6897707881
H 0.4544564165 -1.9151336128 0.5535676723
H 6.7383357719 0.7660967363 -3.0112190313
H 5.2256691712 -0.0679331914 -2.5401252825
H 5.2121220623 1.6962591483 -2.8757903914
H 7.0014087784 3.4008914700 0.6770149608
H 5.4618336456 3.7749716410 1.5235733231
H 6.8539293928 3.1136431102 2.4382572626
