20
CONF40
C -0.1028193892 -0.4751329143 0.9961416578
O -0.2229313991 -1.8249177779 0.5141871798
C 0.9596022941 -2.1942188463 -0.1036172784
O 1.1027911329 -3.2985540314 -0.5795754132
C 1.8758971928 -1.0675575835 -0.0631105589
O 3.1022795676 -1.1813901187 -0.6296657342
C 1.2625093101 -0.0407113972 0.5580224199
O 1.7487351821 1.1880417330 0.7751278870
C -1.2311784439 0.4013372406 0.4470987504
O -1.0061054983 1.6831260312 1.0571621997
C -1.2274381393 0.5253252248 -1.0706488644
O -2.2064196218 1.4885979719 -1.4788253647
H -0.1756004773 -0.4909384505 2.0923806698
H 3.5668297229 -0.3359660105 -0.5576577722
H 1.0012585168 1.7579034609 1.0454021142
H -2.1956238709 -0.0121633663 0.7802833788
H -1.5043312513 2.3288926217 0.5325028286
H -1.4043973591 -0.4547191027 -1.5311170904
H -0.2622298915 0.9105811953 -1.4162119438
H -3.0808273714 1.0924640141 -1.3678793727
