55
CONF32
C 1.2516566062 1.2788954438 0.7829184369
C 1.7823843452 1.3295499904 -0.6405915233
N 3.2034387315 0.9666425824 -0.6768539694
C 3.3670413407 -0.3767783415 -0.1119209895
C 2.8408071311 -0.4216633487 1.3133573233
N 1.4189814119 -0.0631633029 1.3511417086
C 0.9085998203 -0.1447238927 2.7226798746
C -0.6276844982 -0.0746040082 2.7970911805
C -1.2469509371 -1.2509707977 2.1168114017
C -1.8516268427 -1.2997801137 0.9142967538
C -2.2270721701 -2.5971074784 0.3167479924
C -2.8739418866 -3.5962641556 1.0533344872
C -3.1485243756 -4.8370926163 0.4898343660
C -2.7967223198 -5.0951125075 -0.8343159087
C -2.1826444794 -4.1072658808 -1.5966781021
C -1.9035543774 -2.8663727108 -1.0222064459
S -1.0522405772 -1.6514853298 -2.0104984884
C -1.6892398155 -0.1579232883 -1.2972186510
C -2.0698966620 -0.1189602554 0.0562789929
C -2.6422697987 1.0575353979 0.5419979957
C -2.7282529839 2.1909907753 -0.2624691708
C -2.2724960490 2.1643880407 -1.5792321965
C -1.7757802041 0.9787508908 -2.1020950737
C -3.2891002668 3.4423685616 0.3361201187
F -2.4723261357 3.9496459532 1.3035217471
F -4.4908310893 3.2295408317 0.9357543306
F -3.4703508951 4.4247079900 -0.5737569017
C 3.7550835450 1.0474805241 -2.0348771650
C 4.0062322769 2.4977290749 -2.4256847717
O 4.8200249180 3.1504354409 -1.4427719105
H 0.1888770262 1.5405723833 0.7611195115
H 1.7755647682 2.0393051438 1.3972307344
H 1.1878087730 0.6450307790 -1.2773991860
H 1.6499750988 2.3452295551 -1.0281375037
H 2.8322448270 -1.1321759976 -0.7215629517
H 4.4321896356 -0.6346637762 -0.1129999120
H 2.9609575307 -1.4368629629 1.7091490035
H 3.4453929778 0.2615324309 1.9437110957
H 1.2411691318 -1.1005449395 3.1468155133
H 1.3299479377 0.6590372385 3.3573901158
H -0.9754308751 0.8765178653 2.3924322388
H -0.9006628425 -0.0831605228 3.8597043197
H -1.0775107114 -2.2053835184 2.6156692118
H -3.1585394130 -3.3869093778 2.0800483609
H -3.6447963517 -5.6000239327 1.0808103998
H -3.0148630970 -6.0590911364 -1.2823890192
H -1.9223341625 -4.2961458458 -2.6335702345
H -3.0153698968 1.0841504100 1.5605078202
H -2.3321309713 3.0468847786 -2.2050518028
H -1.4621653449 0.9340712154 -3.1400419284
H 3.0973831659 0.5656763603 -2.7832599134
H 4.7131743404 0.5135238560 -2.0394755916
H 4.5450928958 2.5316601470 -3.3781074387
H 3.0586541879 3.0408976137 -2.5587832698
H 4.5026271995 2.8014787636 -0.5932302069
