65
CONF893
C -5.0240290006 3.5299649435 -1.8597000003
C -4.0609699602 2.9217732747 -0.8429644164
C -2.8362580096 2.2419690606 -1.4979770314
C -1.9625560193 3.2188670823 -2.2820766140
C -2.0399427041 1.5840744447 -0.3936077568
O -1.1358407783 2.1178278833 0.2210381405
O -2.4935980822 0.3374317994 -0.1458486224
C -1.8751649992 -0.4209409433 0.9396236688
C -2.9015829068 -0.6225648876 2.0399755903
C -2.2684386803 -1.3684331117 3.2258500100
C -1.4322211054 -2.5200028550 2.7500045877
C -1.0382687494 -2.7068877386 1.4759028044
C -1.4126231932 -1.7491737983 0.3632926147
C -0.2594084740 -1.6204607807 -0.6550529525
C -0.0243059037 -3.0149909536 -1.2759788841
C 0.1824870153 -4.0355177585 -0.1875259439
C -0.2589387001 -3.8656954662 1.0703967584
C 1.1159184615 -3.0510750556 -2.2976369764
C 1.0219852166 -1.0244903101 -0.0308863488
C 1.6510013716 0.0627641923 -0.9047365488
C 2.8118630163 0.7661340685 -0.2238990117
C 3.9876668636 -0.1346186666 0.0945021510
C 5.1604075857 0.6989430499 0.5626782364
C 5.5714910407 1.6325757540 -0.5680663377
C 4.4298969882 2.3606982058 -1.2379653682
O 4.6026942445 3.3498897864 -1.9230319865
O 3.1826136729 1.8686104491 -1.1340179231
O 6.2268054579 -0.1881224777 0.9168425766
C -1.4501680441 -0.4350519741 4.1361918071
H -5.3533138091 2.7766595065 -2.5836974887
H -5.9110764776 3.9236355132 -1.3543420787
H -4.5640538630 4.3540243199 -2.4123243779
H -3.7021638657 3.6966918427 -0.1534575810
H -4.5931361050 2.1767704399 -0.2394115901
H -3.2035831406 1.4500850758 -2.1613755353
H -2.5053221204 3.6040661308 -3.1484558589
H -1.6657761062 4.0637380198 -1.6534710417
H -1.0546764497 2.7262850675 -2.6428206585
H -1.0306641482 0.1614016192 1.3133071864
H -3.2916072198 0.3479266917 2.3668152341
H -3.7397632531 -1.2045277810 1.6375513588
H -3.0838694223 -1.7778833191 3.8388825000
H -1.1266163234 -3.2466418480 3.5029436329
H -2.2690678569 -2.1847601722 -0.1760091322
H -0.6048144513 -0.9504380168 -1.4534183372
H -0.9470303702 -3.2798326030 -1.8178701449
H 0.7324016084 -4.9388453772 -0.4463380756
H -0.0532881222 -4.6189571063 1.8287241162
H 0.9489761185 -2.3179587375 -3.0933877166
H 2.0829095553 -2.8376110386 -1.8303919087
H 1.1804641945 -4.0434084978 -2.7557243506
H 0.8004293573 -0.5925872590 0.9532807422
H 1.7428129880 -1.8268843578 0.1589246267
H 2.0011994294 -0.3581492631 -1.8549661032
H 0.8904256948 0.8164761367 -1.1408402728
H 2.4615659820 1.2565013199 0.6945339864
H 4.2729311704 -0.7193292263 -0.7905063705
H 3.6867904384 -0.8312787139 0.8826841812
H 4.8573144152 1.2891621068 1.4417042528
H 6.0458973870 1.0317035087 -1.3568709970
H 6.3006826385 2.3823734680 -0.2482531796
H 6.9562725146 0.3441559183 1.2593738928
H -2.0902638141 0.3476761182 4.5563314726
H -0.6368030805 0.0424804511 3.5798179193
H -1.0047000223 -0.9962181381 4.9637312570
