49
CONF35
C -5.3925574424 0.3549925076 -2.3524574115
C -4.0716707869 -0.3835968605 -2.1179415549
C -3.0579281417 -0.0243887852 -3.2086584269
C -3.5062415372 -0.0480965321 -0.7370621664
C -4.3545271683 -0.4527791585 0.5041998155
C -4.2989972900 -2.0088192305 0.4250527869
C -2.8575831929 -2.2829374036 -0.0926199836
C -2.2586258884 -0.8530402338 -0.2697133062
C -2.1071915926 -0.2998343055 1.1232726838
C -3.4051733367 -0.0695348830 1.6116249462
C -3.6254263316 0.3284508374 2.9201619513
C -2.5151011136 0.5215638810 3.7505296700
C -1.2245369401 0.3168768609 3.2728842009
C -1.0116779961 -0.1005164136 1.9504188080
N 0.3206955740 -0.3229640301 1.5087236402
C 0.8848890597 0.2841044553 0.4254046032
O 0.2540444449 0.9951481782 -0.3599299063
C 2.3270875153 0.0293174807 0.2130543641
C 2.9273674580 0.1646459180 -1.0309617972
N 4.2395068583 -0.0983732422 -0.8742173323
N 4.5584859357 -0.3813200986 0.3978085756
C 3.4054775154 -0.3147153771 1.0692212818
C 3.4686645508 -0.5353966218 2.5356795632
F 2.9121348686 0.5286865252 3.2153847591
F 2.7105645144 -1.6433264100 2.9038578776
C 5.2742307726 -0.0917371477 -1.9003119170
H -5.2462925146 1.4386038371 -2.2652786623
H -6.1568948793 0.0568620889 -1.6282353503
H -5.7790198389 0.1463195273 -3.3555561745
H -4.2697158618 -1.4609104669 -2.1803306201
H -3.4637908134 -0.2426100167 -4.2020512092
H -2.8169551672 1.0449444726 -3.1689096870
H -2.1250706045 -0.5850369157 -3.0943750376
H -3.2873044002 1.0286512961 -0.7057380489
H -5.3600798970 -0.0371779341 0.5854389927
H -5.0540149657 -2.3824480448 -0.2734366795
H -4.4928033609 -2.4619532854 1.4008454515
H -2.8694898278 -2.8076813191 -1.0526278072
H -4.6314555065 0.4879749178 3.2974109751
H -2.6554824522 0.8483026487 4.7763104081
H 2.4993028823 0.4179160098 -1.9896645615
H 4.4900609211 -0.6904487737 2.8933484336
H 5.7375149143 -1.0792752776 -1.9619395980
H 6.0325339405 0.6548670840 -1.6522257947
H 4.8092435925 0.1577776636 -2.8542401183
H -2.2626883737 -2.8775653165 0.6056878674
H -1.3708561834 -0.8035105889 -0.8966741471
H 0.9234626505 -0.8337718179 2.1380346576
H -0.3672623409 0.4915878641 3.9167314684
