59
CONF596
C 3.6449278703 3.7709721314 -2.5177929085
C 3.0816642419 2.9398811885 -1.3662886393
C 4.0654581560 1.8848884702 -0.8619010878
C 3.5025221609 1.0530071400 0.2893481482
C 4.4665417949 -0.0303862129 0.7711263457
C 3.9280796621 -0.8374164652 1.9571028647
O 4.9453257627 -1.7339379639 2.4654566695
C 2.6843236864 -1.5895811024 1.5961877955
C 1.4773701312 -1.3408768505 2.1061712974
C 0.2078269490 -1.9799003376 1.6497965212
C -0.7301369655 -2.4412389655 2.8062307585
O -1.2287735387 -3.7797776627 2.5701038278
C -1.9383227109 -1.5078934391 2.7347324804
C -2.0984181986 -1.2361218100 1.2372438985
O -2.6953283717 -2.3480629404 0.5502147123
C -0.6424729060 -0.9745794069 0.8106432284
C -0.3543210762 -1.0476278911 -0.6879065540
C -1.0543157642 0.0296713871 -1.4560152883
C -1.9203170781 -0.1749851401 -2.4499826341
C -2.6497702670 0.8992264794 -3.1972114225
C -4.1765405204 0.7630449333 -3.0782360049
C -4.6476808883 0.9182450969 -1.6384438420
C -6.1337973671 0.7884073947 -1.4711788779
O -6.5126850768 1.0286687920 -0.1943796720
O -6.9277417996 0.4975181095 -2.3432805037
H 4.5561584042 4.2959103363 -2.2099673589
H 2.9247949927 4.5201116129 -2.8618577819
H 3.9002539536 3.1324979399 -3.3709362772
H 2.1563705621 2.4421777540 -1.6873896470
H 2.8042970576 3.6008992471 -0.5343505710
H 4.3384296465 1.2181916539 -1.6921916185
H 4.9943308703 2.3766385534 -0.5403882062
H 2.5597198249 0.5894700081 -0.0290510051
H 3.2522181021 1.7154101706 1.1303030961
H 5.4169445963 0.4259586079 1.0766984099
H 4.6889071728 -0.7245172652 -0.0527695512
H 3.7113809589 -0.1561236537 2.7891515368
H 5.1982073982 -2.3222580819 1.7410520447
H 2.7982684173 -2.3542043101 0.8235245354
H 1.3738033099 -0.5580173588 2.8617393032
H 0.4490560962 -2.8530145170 1.0300494535
H -0.2241790965 -2.4100387342 3.7796787537
H -0.4683006849 -4.3717657489 2.4984170545
H -1.6982960594 -0.5681693017 3.2447590947
H -2.8286081133 -1.9389922763 3.2017925186
H -2.7408351828 -0.3752773170 1.0258970633
H -2.2908332557 -3.1512497751 0.9164895126
H -0.4018169396 0.0403495735 1.1612325967
H -0.6429874477 -2.0337959029 -1.0687621060
H 0.7338893085 -0.9508721761 -0.8201246799
H -0.8366784744 1.0559467220 -1.1497540938
H -2.1479626372 -1.2020575192 -2.7457621378
H -2.3874477109 0.8496337315 -4.2626064614
H -2.3347731811 1.8849076526 -2.8322255852
H -4.4874371865 -0.2158072702 -3.4615219760
H -4.6597902400 1.5191374325 -3.7064285089
H -4.1817215605 0.1627988506 -0.9914504869
H -4.3415768263 1.8867108989 -1.2223738303
H -7.4772033744 0.9182656390 -0.1392737265
