34
CONF68
C -1.8351694120 -2.1750467103 0.0241219106
C -2.8926010770 -1.1263465108 -0.2330104667
O -2.4353684985 0.2194816283 0.1498227513
P -1.3670799690 1.0257801882 -0.7161789207
S -1.4706582658 0.9078008052 -2.6455084230
O -1.3739087746 2.4521502733 -0.0173780586
C -2.2360965943 3.5479973753 -0.4929038673
C -3.6884899749 3.3076886494 -0.1571136156
O 0.1193737071 0.4515796573 -0.2471947066
N 0.2835867008 0.4059483946 1.1451608008
C 1.3863415938 -0.1870001071 1.4752039227
C 1.5245946981 -0.2635537680 2.9038755596
N 1.6695283094 -0.3322086654 4.0493423869
C 2.4508317266 -0.7908316651 0.6568451516
C 3.0999067890 -1.9319162768 1.1523921061
C 4.1055630433 -2.5393336032 0.4128416256
C 4.4925024678 -1.9997057441 -0.8117309038
C 3.8693393247 -0.8502879166 -1.2946460882
C 2.8480245268 -0.2457519687 -0.5734565794
H -2.2672741258 -3.1608610604 -0.1744088660
H -0.9699236982 -2.0447284684 -0.6325181780
H -1.5015401058 -2.1465518336 1.0653870928
H -3.1957494867 -1.0962355026 -1.2842167398
H -3.7746629487 -1.2807209052 0.3907788718
H -2.0746807075 3.6613985915 -1.5693736527
H -1.8383896862 4.4227378370 0.0241011680
H -4.2632780962 4.1939614509 -0.4440328754
H -3.8191896388 3.1406223261 0.9155161000
H -4.0898064264 2.4497111844 -0.7044846165
H 2.8052742876 -2.3522630490 2.1090690307
H 4.5916971252 -3.4300332897 0.7966199914
H 5.2848470221 -2.4690219435 -1.3859321183
H 4.1811956862 -0.4184174067 -2.2399456759
H 2.3812602664 0.6539587373 -0.9511325212
