45
CONF6
C 4.5019786183 3.3748324024 0.9255232489
C 3.8757496164 3.5237322552 -0.4613957046
C 3.2858646525 2.2229410709 -1.0145664882
C 2.1154183348 1.6719627864 -0.1989280072
C 1.4822866742 0.4387436711 -0.8393100865
C 0.3466263994 -0.1793430937 -0.0048302857
C -0.1639567845 -1.4776789942 -0.6533513349
C -1.2207623278 -2.2062349303 0.1738261451
C -1.6704899253 -3.5213575259 -0.4606045102
C -2.7315599873 -4.2526396827 0.3611183257
C -3.1735330345 -5.5664102803 -0.2811238038
C -0.7757401800 0.8103712009 0.2263142340
C -1.5141745576 1.3210978070 -0.8478628768
C -2.5443557738 2.2332929661 -0.6387195973
C -2.8578892774 2.6554319490 0.6531161843
C -2.1312953219 2.1553675859 1.7303872784
C -1.1007179050 1.2412965548 1.5147727043
H 5.2616483610 2.5845133222 0.9249027720
H 3.7541516134 3.1176793720 1.6820623894
H 4.9849638988 4.3050354645 1.2415649998
H 3.0895198106 4.2900919025 -0.4300182927
H 4.6373673917 3.8912262346 -1.1605478505
H 2.9462535026 2.3949491640 -2.0450218697
H 4.0778463122 1.4625212378 -1.0716001798
H 2.4507392654 1.4128315023 0.8140910049
H 1.3558717574 2.4573954423 -0.0819927924
H 2.2538641440 -0.3284643182 -0.9905433453
H 1.0989672577 0.6956259145 -1.8367326061
H 0.7606403320 -0.4387474543 0.9801133084
H -0.5685528448 -1.2495499302 -1.6492217872
H 0.6957075489 -2.1429058023 -0.8111650211
H -0.8209748754 -2.4036984165 1.1789477253
H -2.0937401019 -1.5539260252 0.3112241841
H -0.7997118718 -4.1787726812 -0.5949944998
H -2.0656836700 -3.3223889942 -1.4670631180
H -3.6010318527 -3.5949535962 0.4932693231
H -2.3361488714 -4.4479727555 1.3668724600
H -2.3239893130 -6.2487577643 -0.3967794265
H -3.5972555976 -5.3907958846 -1.2762973581
H -3.9325524771 -6.0738324882 0.3228007157
H -1.2822292705 1.0023615468 -1.8604573239
H -3.1050285406 2.6170767955 -1.4861786605
H -3.6611962952 3.3672494753 0.8166023784
H -2.3656737152 2.4761888626 2.7412556087
H -0.5372201244 0.8546152108 2.3604166453
