44
CONF15
C 4.9959220216 0.4692071788 0.0015964151
N 3.9926267829 -0.5652407086 0.2539495850
C 3.9685309854 -1.5099192173 -0.8635674075
C 2.6817727815 0.0572125837 0.4553628659
C 1.6085249977 -0.9292406667 0.9385324926
C 0.3576182180 -0.1914564438 1.2979186316
C -0.7644397218 -0.1231338161 0.5604407352
C -1.9250149107 0.6866318549 1.0187411444
C -2.3333227338 0.5281728336 2.3551003970
C -3.4083370167 1.2267568455 2.8831861137
C -4.1149886278 2.1077179940 2.0688512380
C -3.7251049980 2.2713418520 0.7472502385
C -2.6408387639 1.5781734300 0.1932802102
C -2.3296181489 1.8918039096 -1.2594072337
C -1.0120340768 1.3687159460 -1.8418328512
C -1.0021330536 -0.1299677003 -1.9163112519
C -1.1235121482 -0.8148198799 -3.1253759369
C -1.1611107001 -2.2066574982 -3.1568358321
C -1.0812699229 -2.9284573797 -1.9690560042
C -0.9569054635 -2.2547251807 -0.7573577610
C -0.9098585009 -0.8590905238 -0.7221998317
H 5.0389591539 1.1599424828 0.8501822891
H 4.7818290073 1.0578178361 -0.9124661593
H 5.9817647921 0.0070820974 -0.1153613419
H 4.9728233755 -1.9176479960 -1.0164090175
H 3.2978579107 -2.3465936402 -0.6500725715
H 3.6396654645 -1.0351357308 -1.8096036378
H 2.3194047992 0.5469537915 -0.4733358164
H 2.7978032284 0.8477220710 1.2080674022
H 1.4004397990 -1.6689795125 0.1627155368
H 1.9995616107 -1.4609024596 1.8157006605
H 0.4032184411 0.4094522795 2.2062897988
H -1.7977010748 -0.1841157292 2.9747517554
H -3.7003735778 1.0743382077 3.9174565895
H -4.9629913573 2.6617687574 2.4590524099
H -4.2698175858 2.9672559293 0.1133007296
H -2.3508657331 2.9829332675 -1.3703814288
H -3.1551920157 1.5106652086 -1.8766828285
H -0.8834229190 1.7918428693 -2.8431276662
H -0.1738775128 1.7200562184 -1.2268214159
H -1.1868263624 -0.2494128676 -4.0515765354
H -1.2546544093 -2.7254587236 -4.1058201974
H -1.1169663071 -4.0132468811 -1.9843153777
H -0.8971446579 -2.8093623752 0.1746688553
