19
CONF1
C 2.7520428314 -0.0384713847 0.4137714520
N 1.3644882518 0.0178098151 -0.0240980559
C 1.0022816626 0.2339031521 -1.3483806121
O 1.7551506930 0.3965407965 -2.2794922727
O -0.3424561980 0.2377115163 -1.4523105090
C -0.9521709318 0.0114691484 -0.1314051285
C -1.7809187067 1.2298026300 0.2356798377
C -1.7546224704 -1.2768963134 -0.1822739841
C 0.2609891441 -0.1276225839 0.7809725136
O 0.2527636163 -0.3265241879 1.9798349017
H 3.2542764917 0.9043827962 0.1842929623
H 2.7524171396 -0.2045020369 1.4919635275
H 3.2690978841 -0.8605227291 -0.0871853423
H -1.1667410662 2.1343779282 0.2281827612
H -2.1972885860 1.0894439789 1.2363957432
H -2.6017241810 1.3413335318 -0.4772892820
H -2.1689223158 -1.4786991209 0.8087377069
H -1.1225262735 -2.1168814395 -0.4827980786
H -2.5761364874 -1.1666553966 -0.8945980403
