63
CONF32
C 1.1151395597 0.0637492421 1.9469179647
C -0.2545965000 -0.6074634112 1.9894448346
N -0.2354741358 -1.8782324660 1.2567981809
C 0.7235839688 -2.7987024577 1.8773059367
C 2.1394708026 -2.2331732638 1.8264737488
C 2.1728509127 -0.8746915407 2.5267063914
N 3.5082504149 -0.2784688521 2.5232979796
C 4.2733292381 0.1248233416 1.4314850731
C 4.0450226413 0.1037158894 0.0607489051
C 5.0509185823 0.6004934427 -0.7738713794
C 6.2467566428 1.1028615973 -0.2577256382
C 6.4816405122 1.1266438717 1.1193602396
C 5.4846174481 0.6341031363 1.9448429180
N 5.4130335238 0.5216996711 3.3209396294
C 4.2075012927 -0.0353877418 3.7046723439
O 3.8290747800 -0.2689444427 4.8511468958
C -1.5654668379 -2.5024965278 1.2089880290
C -2.6144913308 -1.6614552857 0.4834873691
C -2.1894801999 -1.2440285101 -0.9226079629
C -3.1843002954 -0.2624278363 -1.5620622277
C -3.2119136583 1.0516832627 -0.7953281961
C -2.0747746757 1.8645000829 -0.7411862399
C -2.0718922285 3.0531591129 -0.0186346999
C -3.2320369677 3.4176577679 0.6455612344
C -4.3821123048 2.6508541283 0.6141580376
C -4.3589424212 1.4618580765 -0.1141437196
F -3.2381781155 4.5778475275 1.3570160072
C -2.9308473714 -0.0019747650 -3.0381558453
C -1.6704375829 -0.1364081335 -3.6253898294
C -1.4682078707 0.1531888144 -4.9746290082
C -2.5492510024 0.5792543346 -5.7235670970
C -3.8175613189 0.7252967006 -5.1863584255
C -3.9942304718 0.4315162041 -3.8384956590
F -2.3620820926 0.8609314649 -7.0419956819
H 1.0886994076 0.9952239672 2.5232699573
H 1.3547683776 0.3188063156 0.9088766559
H -0.9877663636 0.0636167152 1.5310304447
H -0.5638449166 -0.7621591115 3.0446221413
H 0.4485565333 -3.0057740524 2.9327502496
H 0.6890156456 -3.7534677868 1.3400999254
H 2.4514278880 -2.1357275050 0.7810644967
H 2.8323899259 -2.9226696001 2.3212823425
H 1.9423667104 -1.0330270648 3.5875045283
H 3.1257549452 -0.2804488505 -0.3626157581
H 4.8917489252 0.5927285200 -1.8471984154
H 7.0070844443 1.4812131614 -0.9329823307
H 7.4070595754 1.5149742171 1.5313300619
H 6.1195008710 0.8042000134 3.9816592779
H -1.9325385321 -2.7318638870 2.2298732974
H -1.4524512604 -3.4621311402 0.6872332432
H -3.5369743641 -2.2533150697 0.4285617944
H -2.8649165765 -0.7720496531 1.0736597488
H -1.1964838396 -0.7843498630 -0.8753389246
H -2.0957031292 -2.1334700150 -1.5593709936
H -4.1874962736 -0.7010325616 -1.4839252052
H -1.1731539197 1.5697051769 -1.2707514312
H -1.1927418486 3.6868364613 0.0303441703
H -5.2694786135 2.9734379280 1.1481801858
H -5.2506198962 0.8420228522 -0.1443357719
H -0.8245648923 -0.4747169771 -3.0366806826
H -0.4919931388 0.0476668658 -5.4356924452
H -4.6410733458 1.0563371817 -5.8099971674
H -4.9814818637 0.5424888470 -3.3976526104
