22
CONF307
C 2.0740889982 -0.5948388334 0.6281962966
C 1.5037013377 0.5987226512 -0.1204647187
C 0.0422448619 0.9924106867 0.1748666442
C -1.0202711364 -0.0824212397 -0.1068445409
C -2.4268902424 0.4949044042 -0.0250944724
O -3.4098385215 -0.5253093732 -0.2262181080
O -0.9748316944 -1.1180890110 0.8844262613
O -0.2398641115 2.1829312007 -0.5749432394
O 1.6957643448 0.4521089976 -1.5358086144
O 1.5128492943 -1.8018224031 0.0688997230
H 1.8431182429 -0.5134001362 1.6988315457
H 3.1620414039 -0.6051347037 0.4950948894
H 2.1046221509 1.4684565906 0.1730539932
H -0.0341689687 1.2679431763 1.2348481049
H -0.8718632986 -0.5112134440 -1.1119209357
H -2.5589767545 0.9762501608 0.9579764786
H -2.5794727922 1.2444604647 -0.8028103254
H -3.1567627207 -1.2564358831 0.3549934460
H -0.1837296733 -1.6557033887 0.6882537185
H 0.0367031614 1.9977416349 -1.4851945620
H 1.4570287801 -0.4579847552 -1.7634732253
H 2.0245075390 -2.5535767967 0.3933317309
