48
CONF6
C -3.0080426615 1.8879919280 -1.5691334802
C -3.1973541844 1.1397101220 -0.2506165848
C -3.6846573188 2.0744894028 0.8909857543
C -4.6989886329 1.2212309820 1.6420696590
N -5.3682650304 0.5264054664 0.5405447291
C -4.3084155191 0.0324877279 -0.3259287546
N -3.6495319743 -1.2193906177 0.1332020044
C -2.2913410245 -0.9955953334 0.3081613590
C -1.9688597029 0.3552890941 0.1402868105
C -0.6689318272 0.7944796498 0.3074026578
C 0.3085680179 -0.1419876303 0.6336627980
C 0.0080689313 -1.4879186710 0.7805752896
C -1.3024584926 -1.9320764829 0.6119966347
O 1.6053014404 0.3354894555 0.8685696271
C 2.6042950728 -0.1103114574 0.0264751952
O 2.4424063289 -0.8620841755 -0.9041291996
N 3.7767309889 0.4592162538 0.4459725322
C 5.0605967655 0.3042996975 -0.0999783461
C 6.1040016268 1.0034108876 0.5204009335
C 7.4010954605 0.9005636703 0.0394400032
C 7.6798711664 0.1013267108 -1.0656532474
C 6.6407447072 -0.5904767920 -1.6787275993
C 5.3337874559 -0.4999484617 -1.2112330752
C -4.0859509574 -2.4990347674 -0.3978981750
C -6.3643372600 -0.4471313896 0.9502141806
H -2.2684379109 2.6873539384 -1.4535385479
H -2.6556915239 1.2133734633 -2.3551741319
H -3.9529989462 2.3412407161 -1.8872542774
H -2.8550061847 2.4153058854 1.5155484296
H -4.1862998060 2.9490001989 0.4634854428
H -5.4228313798 1.8096217846 2.2167872782
H -4.7085934787 -0.1226238944 -1.3401569195
H -0.3919253085 1.8362508524 0.1771701425
H 0.7993901481 -2.1905542276 1.0150145548
H -1.5357032312 -2.9850766451 0.7236495830
H 3.6976172368 1.0621350870 1.2502082259
H 5.8946522367 1.6298343243 1.3837115102
H 8.1964339968 1.4495947475 0.5331376320
H 8.6934088570 0.0199992835 -1.4428615550
H 6.8427781984 -1.2171814012 -2.5416491545
H 4.5328139449 -1.0401504400 -1.6950904329
H -5.1494560989 -2.4515566092 -0.6415753003
H -3.5302794007 -2.7853493699 -1.3067861654
H -3.9579527044 -3.2937483596 0.3466528087
H -6.8615413568 -0.8672951549 0.0677956113
H -7.1287273497 0.0523850603 1.5549183598
H -5.9430360016 -1.2774263144 1.5454938556
H -4.1932808619 0.5213868968 2.3352408943
