15
CONF1
C -1.3905001817 2.3947655901 -0.7252080932
C -1.2541425299 1.1980920509 -0.6983583918
C -1.0856268313 -0.2435591210 -0.6241122673
C -0.6461966249 -0.7181031074 0.7714009859
C 0.7250142156 -0.1571463360 1.1850377574
C 1.7968775004 -0.5957071217 0.3070526202
C 2.6607751190 -0.9821282037 -0.4384095814
H -1.5092972879 3.4501817887 -0.7661966980
H -0.3386053591 -0.5595689594 -1.3635933584
H -2.0289974343 -0.7319106776 -0.8957548442
H -0.6066412785 -1.8122648173 0.7722238773
H -1.3896736269 -0.4065464730 1.5122904752
H 0.9506438659 -0.4650806529 2.2128724958
H 0.6805120787 0.9395922525 1.1833449563
H 3.4358587718 -1.3106163127 -1.0872799206
