37
CONF13
C 3.7995182928 -3.8133138012 0.2966331713
C 4.1366245936 -2.4845548792 0.9382430024
C 3.9371591522 -2.4704359477 2.4419246948
O 3.2151731381 -1.5061903157 0.3289718579
C 3.5998590523 -0.2212680659 0.3257224451
O 4.6737883316 0.1828748764 0.7234182636
C 2.5114704096 0.6520922771 -0.2038579089
C 2.7546964931 1.8018314879 -0.9680210745
C 1.7124789233 2.6169566532 -1.3899239897
C 0.4230567774 2.2842656771 -1.0184036703
C 0.1200934336 1.1663387510 -0.2430855547
C 1.1889393791 0.3546152925 0.1341633660
C -1.2516479930 0.8236135543 0.1369056677
N -1.7231592911 -0.4131137096 -0.0801877406
N -2.9624610195 -0.4352812326 0.4134716163
C -3.3231085498 0.7646357563 0.9448175162
C -2.2277150344 1.6040777803 0.7872678325
Br -1.9896961611 3.3528573932 1.4306687029
C -4.6579481085 0.9750922791 1.5723925738
F -4.7833038820 0.2877129604 2.7384763864
F -5.6621985030 0.5472086475 0.7659464517
F -4.8822918610 2.2702203977 1.8437927433
C -3.7726446240 -1.6430675125 0.2715832534
F -0.5795305052 3.0598950850 -1.4692740378
Cl 4.3615125211 2.2327303217 -1.5011441420
H 3.9291925408 -3.7674075592 -0.7878435830
H 4.4662523387 -4.5838707171 0.6939280813
H 2.7670380037 -4.0991298914 0.5208339350
H 5.1537236322 -2.1746246547 0.6807085594
H 2.9074203933 -2.7466111430 2.6900006594
H 4.1554908743 -1.4843612904 2.8596310734
H 4.6122120393 -3.1973650371 2.9034361081
H 1.8894372546 3.4847779971 -2.0137660978
H 0.9872105896 -0.5241100689 0.7353111887
H -4.3321583262 -1.8241500674 1.1909458954
H -3.0877677795 -2.4710833956 0.0907533454
H -4.4630057008 -1.5402713445 -0.5698302618
