35
CONF1060
C -0.8674454213 1.9625516010 1.2836068884
C -0.8096342330 3.1866930082 0.4047626832
C 0.4636968772 3.9933760764 0.4753851527
Br 0.7034588861 4.7229320922 2.3121297478
Br -0.9560752312 2.6334543266 -1.5184298458
O 0.3597217063 1.2137599847 1.1132431644
P 0.3797455372 -0.3600246753 1.3782747663
O 0.0004284908 -0.8461231600 2.7228078483
O 1.8889304308 -0.7231325757 1.0183906821
C 2.4343202893 -0.4237907156 -0.2908953838
C 3.9383708029 -0.4826271842 -0.2086684155
C 4.5703237683 0.3266334394 0.8973098134
Br 4.2053063751 2.2643194267 0.6061349138
Br 4.5225639685 -2.3711230496 0.1289206812
O -0.5342807032 -0.8957240590 0.1685414546
C -1.2021838063 -2.1729420006 0.2863046278
C -2.5613021864 -2.0203572407 0.9315951518
C -3.3161894442 -3.3192390277 1.0726249919
Br -2.4326264996 -4.4643230223 2.4435144727
Br -3.7062988056 -0.8563474753 -0.2311751863
H -1.7388596641 1.3512807926 1.0293562521
H -0.9388211960 2.2787815319 2.3304535446
H -1.6951444852 3.7992052680 0.5814859990
H 1.3485144012 3.3892947424 0.2820244093
H 0.4280599046 4.8633194489 -0.1762030274
H 2.1463345841 0.5904684494 -0.5932176884
H 2.0531363951 -1.1425623580 -1.0206427099
H 4.3598985658 -0.2399107131 -1.1853710979
H 4.1542307393 0.0928850905 1.8752851795
H 5.6542300889 0.2392256118 0.8956460160
H -1.2897166228 -2.5672976272 -0.7289259835
H -0.6022822675 -2.8638377122 0.8898457514
H -2.4980609827 -1.4783308975 1.8761385712
H -3.3238697221 -3.9033874229 0.1523493790
H -4.3253475980 -3.1631633925 1.4459874081
