68
CONF7
C 1.7100679917 1.8654674741 -2.6033703511
C 0.7350178401 2.9879042002 -2.2557848310
C 0.6988523956 3.3794509024 -0.7641644857
C -0.3519200116 4.4936066471 -0.5663432985
C 2.0642005361 3.8805203632 -0.2872024360
C 0.2459136792 2.2187288413 0.1192342267
O 0.7023742926 1.9645392965 1.2194857067
O -0.7740650265 1.5401178075 -0.4339339697
C -1.4607208168 0.5410098729 0.3884911686
C -2.4881478401 1.2401920184 1.2619718405
C -3.2539126220 0.2240741454 2.1152360199
C -3.7332789906 -0.9142265179 1.2616146872
C -3.2423651633 -1.2019570484 0.0424721508
C -2.1124416379 -0.4200681177 -0.5929581526
C -1.1234129761 -1.4042582340 -1.2581229536
C -1.8777724029 -2.0904344459 -2.4192058429
C -3.1725966165 -2.6765460232 -1.9164246201
C -3.7636284197 -2.2884481564 -0.7730465472
C -1.0507547298 -3.1412113785 -3.1660911377
C -0.5487790352 -2.4208340534 -0.2457076955
C 0.9452484794 -2.7136593777 -0.4129776825
C 1.8575992051 -1.5909454536 0.0397512624
C 3.3294679109 -1.8833396309 -0.1915613784
C 4.2231218843 -0.7468098555 0.3072603793
C 3.4629367589 0.1477088943 1.3058411327
C 2.4606234606 -0.5878489676 2.1485114311
O 2.3241246672 -0.4538263177 3.3497003493
O 1.6458441327 -1.4349756596 1.4889114638
O 4.6304962424 0.0249374767 -0.8340135890
C -4.4196460179 0.8931325241 2.8512853713
H 2.7480213145 2.1558827184 -2.4174759514
H 1.6234548603 1.5979437351 -3.6608971318
H 1.5037840439 0.9631078672 -2.0170013383
H -0.2755703153 2.7110825800 -2.5724209067
H 1.0027611043 3.8930541151 -2.8155670548
H -0.0469212970 5.3768546994 -1.1370425601
H -0.4296484294 4.7764102188 0.4885572718
H -1.3365202017 4.1735338383 -0.9195796454
H 2.8210691407 3.0922646699 -0.3221422385
H 2.3910826771 4.7019496456 -0.9328434868
H 2.0072988143 4.2485031813 0.7402976973
H -0.7126819689 0.0360373910 1.0091221095
H -3.1970355985 1.7705870188 0.6117071914
H -1.9958955204 1.9796628915 1.9023333963
H -2.5665007044 -0.1772531042 2.8782610102
H -4.5411759332 -1.5280132500 1.6609487337
H -2.5510201982 0.1937317893 -1.3951659946
H -0.3022170430 -0.8145827391 -1.6873976876
H -2.1225446713 -1.3010767235 -3.1485453383
H -3.6186856424 -3.4753252850 -2.5068553725
H -4.6692834359 -2.7841103681 -0.4282050593
H -0.7974278568 -3.9893810246 -2.5217677995
H -0.1209560467 -2.7056029457 -3.5460155756
H -1.6184123735 -3.5294877314 -4.0180179665
H -1.1021440851 -3.3619855225 -0.3292264329
H -0.7232257513 -2.0758501735 0.7795700955
H 1.2163343596 -3.6161449014 0.1492569838
H 1.1787187807 -2.9132363509 -1.4647323716
H 1.5686437437 -0.6421994713 -0.4315730189
H 3.5761515567 -2.8139680712 0.3318821192
H 3.5104221885 -2.0433473173 -1.2585082286
H 5.1115450740 -1.1631323053 0.7988301411
H 4.1382260733 0.7043518126 1.9576481137
H 2.8828534784 0.8708374507 0.7171760184
H 5.1917203719 0.7460694657 -0.5194339232
H -4.9439247421 0.1724870753 3.4869356987
H -5.1389406831 1.3036129075 2.1338841674
H -4.0595130008 1.7110531950 3.4836249567
