50
CONF19
C 4.2401704781 -2.9181440472 -1.0207764277
C 3.1035207520 -2.3656563312 -0.2155007864
O 3.1708971202 -2.0034898984 0.9395664589
O 1.9634094692 -2.3481686190 -0.9522009239
C 0.7526546876 -1.8579275240 -0.3274008044
C -0.2937066311 -2.9457254673 -0.3106923720
C -1.5483286344 -2.6324916139 0.0333089176
C -1.7881734349 -1.1973308734 0.3875518101
C -3.2069869374 -0.6790052491 0.6611228280
C -3.1463916310 0.7960735495 1.2143776404
C -1.9060801714 1.5796092672 0.8340648835
C -1.0244620069 1.0243429914 -0.0744852416
C -1.1982878199 -0.3004439354 -0.7270026172
C 0.2472814082 -0.6580504778 -1.1297266366
O 1.0701133791 0.5457507980 -0.8913943349
C 0.2897321992 1.4364699352 -0.2092438386
C 0.7058246073 2.5964676930 0.4229782484
C -0.2057590737 3.2681745003 1.2387016690
C -1.4840167773 2.7574877674 1.4717483152
O 2.0074383719 3.0823271183 0.2645091136
C 2.9982574492 2.4178376375 0.9472862808
O 2.7733099145 1.5118928476 1.7130022949
C 4.3406594638 2.9653779086 0.5841176568
C -2.1116787154 -0.3070858017 -1.9643392728
C -3.5577474341 0.0187132160 -1.6291790585
N -4.0272283847 -0.8488130434 -0.5473041668
C -5.4530877105 -0.6572192403 -0.2946173821
H 4.2352724711 -2.5068719313 -2.0323875104
H 5.1834534034 -2.7025036420 -0.5203899931
H 4.1154846417 -4.0033228615 -1.1021044975
H 0.9906600829 -1.5272156414 0.6927369987
H 0.0201494346 -3.9515554459 -0.5723445742
H -1.2048928079 -0.9898483132 1.2985590474
H -3.6633142126 -1.3010278669 1.4402458634
H -3.1838999215 0.7576377868 2.3092639853
H -4.0537380985 1.3304218220 0.9090610546
H 0.3361863051 -0.8792073800 -2.1967350085
H 0.1257377329 4.1713870797 1.7417853031
H -2.1311898353 3.2553365345 2.1878654487
H 5.0846002712 2.6157543673 1.2986948240
H 4.6028978205 2.6050468777 -0.4165888009
H -1.7245190228 0.4097119073 -2.6973994654
H -2.0603235231 -1.3060850372 -2.4148278134
H -3.6593557587 1.0911589144 -1.3702527565
H -4.1862623087 -0.1530161901 -2.5107549706
H -5.7208409179 0.3808854431 -0.0246347242
H -6.0170695583 -0.9192869209 -1.1963617721
H -5.7759409778 -1.3162973754 0.5182543079
H 4.3184217577 4.0566495343 0.5481254574
H -2.3431885263 -3.3722849811 0.0657362193
