44
CONF43
C -3.9066164643 2.1411957309 2.7968930996
C -2.7272106551 1.3014977201 2.3490913640
C -2.9703194358 -0.2082112530 2.4301104937
O -3.4875104321 -0.5174019350 1.1252234363
C -2.7307019227 0.2889425973 0.2418698293
O -2.4989593947 1.5087563740 0.9275796009
C -3.5576602059 0.5895106112 -1.0182800547
N -4.8200365013 1.2286973607 -0.7011481881
C -5.9559702949 0.6600573282 -0.2485454362
N -6.8745569154 1.5895942754 -0.0159498132
C -6.2238544734 2.7407855808 -0.3484715633
N -4.9761182325 2.5749866653 -0.7666796287
C -1.3996267497 -0.3751955172 -0.1337257623
C -1.2828072170 -1.6838831100 -0.6171986428
C -0.0546801440 -2.2489751261 -0.9344577131
C 1.0993569735 -1.4875465310 -0.7833819445
C 1.0292095948 -0.1764695349 -0.3228160877
C -0.2134945393 0.3538666676 -0.0066743562
O 2.2744003185 -2.0852292326 -1.1784635941
C 3.4559385583 -1.7275309584 -0.5484890238
C 3.5565862313 -1.6891945112 0.8396401147
C 4.7830922058 -1.4013279274 1.4270318122
C 5.8861708779 -1.1676483729 0.6127406278
C 5.7931914820 -1.2157015398 -0.7726637601
C 4.5618309780 -1.4951055123 -1.3570380475
Cl 7.4395086775 -0.8068312177 1.3575993225
Cl -2.6864257242 -2.7266419221 -0.8448087738
H -3.7424800617 3.1936585830 2.5498319396
H -4.8244546658 1.8021258961 2.3051285104
H -4.0336929766 2.0548295425 3.8808457219
H -1.8129688341 1.5874328615 2.8814807351
H -2.0400272194 -0.7627894898 2.6115177295
H -3.7250952160 -0.4882569956 3.1669451905
H -2.9840557352 1.2630621638 -1.6580261457
H -3.7548936414 -0.3365055745 -1.5618596558
H -6.0635981652 -0.4080106562 -0.1163544217
H -6.6772474871 3.7221244559 -0.2872751967
H 0.0148844551 -3.2681590452 -1.2956966714
H 1.9256923445 0.4233099677 -0.2152158666
H -0.2794456907 1.3738022713 0.3528141102
H 2.6879011697 -1.8853414301 1.4590904763
H 4.8781980523 -1.3702441200 2.5063793277
H 6.6640766734 -1.0326097797 -1.3914071883
H 4.4578162339 -1.5361863224 -2.4358008574
