44
CONF297
C -2.9431453575 -2.9097263122 -0.4701599641
S -2.2721339732 -2.3626914454 -2.0498113019
O -3.3642817236 -1.8262854313 -2.8920593314
O -1.4464570924 -3.4590138117 -2.5981138356
C -1.1314145320 -1.0049112162 -1.6143672617
C -1.5800269287 0.2145954105 -1.0851762983
C -0.5997845750 1.1759995959 -0.8029981370
C 0.7614340207 0.9492729226 -1.0393030042
C 1.1523760574 -0.2888712540 -1.5464639683
C 0.2127974245 -1.2636220510 -1.8433791807
C 1.8037739066 2.0073374328 -0.8269946199
O 1.6658025846 3.1244017216 -1.2804600471
C 3.0788732924 1.6321825396 -0.0830899148
C 4.1784334425 1.1193703977 -1.0337505596
O 4.0263643206 1.1484575253 -2.2373183794
C 5.4102248496 0.6023209629 -0.3474798571
C 5.0359803637 -0.4093519514 0.7447373512
C 4.1085221025 0.2126166404 1.7939089096
C 2.8635144628 0.7747514930 1.1678190219
O 1.7465667297 0.6181507779 1.6197897562
Cl -1.0956923637 2.6785587699 -0.0532906871
C -3.0235351959 0.4998368460 -0.7709073159
O -3.1816926746 0.3176940565 0.6531370030
C -4.2839455328 0.9955447116 1.2177204946
C -5.5765353441 0.2094315988 1.0682280659
F -5.4754725468 -1.0355855076 1.5894850758
F -5.9499333543 0.0625082464 -0.2275694560
F -6.5881509672 0.8397143008 1.7105533694
H -3.6245788099 -3.7320677648 -0.7065677740
H -2.1098584148 -3.2535272238 0.1466417214
H -3.4740237157 -2.0845732858 0.0082935189
H 2.1999266414 -0.4919941437 -1.7341098033
H 0.5227508752 -2.2195764292 -2.2469431873
H 3.5062453055 2.5731290161 0.3033739221
H 6.0691186124 0.1651086298 -1.1008097133
H 5.9230660889 1.4599696277 0.1111067681
H 5.9474193513 -0.7643159062 1.2317993511
H 4.5488700807 -1.2793897516 0.2888957112
H 4.6263858492 1.0497287858 2.2854708726
H 3.8174312577 -0.5058915999 2.5634932785
H -3.2670381480 1.5326237288 -1.0469969677
H -3.6895344031 -0.1628904532 -1.3251408131
H -4.0918687678 1.1005447259 2.2898869813
H -4.4367720716 1.9904355775 0.7773975025
