59
CONF217
C 3.7382398953 0.0365384025 4.1254607578
C 4.2929860859 1.3233236384 4.7426575265
C 5.1459114960 1.8913383979 3.6039650553
C 4.3533557408 1.5851298952 2.3045879607
C 3.3226274639 0.4842493582 2.7175527499
C 5.2768937759 1.1074005355 1.1875172833
C 4.5760708273 0.8884198974 -0.1282222240
O 4.9870005922 0.0851079424 -0.9548093688
N 3.4257086256 1.6412403977 -0.3876921692
C 2.8741655797 2.5628181808 0.5089350522
O 1.8224535465 3.1290263023 0.2446415127
C 3.6456718248 2.8318693442 1.7727434318
C 2.6923974000 1.3677575903 -1.6380746134
C 1.6786681173 0.2419577388 -1.4544743561
C 0.9351817502 -0.0534633320 -2.7541593495
C 0.0041646391 -1.2604053096 -2.6514988516
N -0.9701425249 -1.1694018651 -1.5556846668
C -1.6803121940 -2.4464667889 -1.4137774426
C -2.6802196105 -2.3839814490 -0.2633323787
N -3.6312942054 -1.2940770893 -0.4889708981
C -2.9397802745 -0.0123742533 -0.6354428263
C -1.9321638580 -0.0840015633 -1.7798281963
C -4.8469321228 -1.5207456614 -1.0742911594
N -5.2819598395 -2.8033950500 -1.1367381484
C -6.4957005502 -2.9936738587 -1.6504029855
C -7.2981480190 -1.9575157043 -2.1138593902
C -6.7525397157 -0.6828353669 -2.0154344042
N -5.5441998942 -0.4424660163 -1.5096953584
H 2.9094626330 -0.4006316248 4.6904000134
H 4.5365700533 -0.7140452090 4.0651403196
H 3.4685768051 2.0079856704 4.9797441689
H 4.8665890057 1.1565424851 5.6594474356
H 6.1049244511 1.3596144215 3.5740689641
H 5.3636881587 2.9590549383 3.7069542943
H 3.2892259415 -0.3440007819 2.0012960023
H 2.3165963456 0.9194172289 2.7562964998
H 6.0690579778 1.8505651603 1.0132788194
H 5.7697133817 0.1649720085 1.4444449980
H 2.9451263040 3.2482934118 2.5012319776
H 4.3880473379 3.6089598074 1.5399274672
H 3.4294177186 1.1040724564 -2.3991648677
H 2.1923121372 2.2920581138 -1.9345720453
H 2.1987686565 -0.6626390097 -1.1138177158
H 0.9680201046 0.5203828038 -0.6687688420
H 1.6595599901 -0.2705962861 -3.5497609687
H 0.3852702535 0.8381297311 -3.0799219710
H 0.6115998836 -2.1566712439 -2.4695789021
H -0.5079513840 -1.4082897947 -3.6233045367
H -2.2208109016 -2.7161071056 -2.3446245762
H -0.9471606912 -3.2367503104 -1.2129995134
H -2.1490887594 -2.1774479517 0.6744162667
H -3.2120345358 -3.3292274271 -0.1662006952
H -2.4123183464 0.1933601409 0.3046857592
H -2.4785981778 -0.2219703032 -2.7357392244
H -1.3985088246 0.8707423671 -1.8335462894
H -6.8399066099 -4.0265668321 -1.6968354243
H -8.2814092030 -2.1327258649 -2.5317508637
H -7.3085741868 0.1877624491 -2.3623901184
H -3.6620222249 0.7826979851 -0.8137604345
