51
CONF121
O 4.2687665896 0.6391419440 1.4589196396
C 3.6340563714 0.0545294095 0.3100315010
C 2.1326951549 0.2839476208 0.4624321369
C 1.5576176129 -0.3873842053 1.7096914279
C 0.0463289533 -0.2472744960 1.8450454950
C -0.8647462950 -0.7506457239 0.6702235713
N -1.3302980754 0.6528211788 0.5386184349
C -0.5422640809 1.1375032859 1.5591840972
O -0.3907375246 2.2588569130 2.0072334458
C -2.2484390520 1.2212905890 -0.3450956601
C -2.7744586635 0.4407262875 -1.3811923197
C -3.6919517530 0.9884624914 -2.2706272541
C -4.0631213561 2.3118679439 -2.1086380508
F -4.9587141684 2.8502585962 -2.9779074388
C -3.5570364179 3.1080749226 -1.0944370452
C -2.6443864375 2.5585716174 -0.2022261894
C -1.9292700237 -1.7529265894 1.0007998546
C -2.9765228146 -1.4395002609 1.8713388841
C -3.9405569401 -2.3842318207 2.1995482026
C -3.8627777653 -3.6697428155 1.6571940553
O -4.7794880854 -4.6415684896 1.9395269987
C -2.8241628582 -3.9986281040 0.7857414451
C -1.8718516518 -3.0399262919 0.4616999524
C 4.1528451798 0.6475111792 -0.9815667634
C 4.4302462679 -0.1751096396 -2.0741706522
C 4.8721003802 0.3595902449 -3.2824536431
C 5.0348572780 1.7310924166 -3.3660896608
F 5.4752202053 2.2643931098 -4.5364486446
C 4.7753712743 2.5833956690 -2.3048024414
C 4.3306695825 2.0281142673 -1.1091949146
H 5.2204068813 0.5024263612 1.3668938317
H 3.8225297586 -1.0309485784 0.2934595674
H 1.9493635748 1.3663294832 0.4905012952
H 1.6494189004 -0.1003941958 -0.4432949918
H 1.8092309662 -1.4561597077 1.7065028464
H 2.0210772609 0.0440332558 2.6026745997
H -0.2951927781 -0.6396316238 2.8087290299
H -0.2923826583 -1.0760349753 -0.2059639735
H -2.4705096310 -0.5942156497 -1.4926908785
H -4.1106170619 0.3983617140 -3.0783899092
H -3.8746277978 4.1410451837 -1.0029824035
H -2.2362859789 3.1600754640 0.6003834455
H -3.0485196285 -0.4411738546 2.2949962798
H -4.7544901369 -2.1278927440 2.8727587159
H -5.4445911135 -4.2914528676 2.5474529770
H -2.7777850522 -4.9979231922 0.3651888498
H -1.0704566422 -3.2974392505 -0.2259545320
H 4.3026908228 -1.2504951821 -1.9838275601
H 5.0952230198 -0.2697246883 -4.1371954579
H 4.9209849738 3.6524082102 -2.4171609772
H 4.1245412168 2.6755953235 -0.2627531193
