40
CONF4
N -1.9199601425 4.2685054992 0.4177424319
C -1.9138031422 2.9751305468 0.0971823793
N -0.8023476577 2.4641833059 -0.4673425774
C -0.7456991668 1.1581182296 -0.8177523929
O 0.2281107982 0.6630799223 -1.4168213815
N -1.8172578091 0.3166249853 -0.4917738211
C -2.9415206818 0.8368244100 0.0839182986
C -3.0499909024 2.1577256550 0.3559144653
C -1.6492377271 -1.1401092875 -0.5383398778
O -0.7526154549 -1.5032469004 0.5174191936
C 0.0735222325 -2.5862251378 0.0687517582
C 1.3157671040 -2.6651323817 0.9196199589
O 2.1258971413 -1.4613430055 0.8126510063
P 2.1946508975 -0.3877062595 1.9932302848
O 3.7559480323 -0.1639993908 2.2121699588
O 1.4192690850 -0.7347836067 3.2038081960
O 1.6710708602 0.9925611168 1.3197386317
P 2.5362667246 2.0639878419 0.4146858634
O 1.5669079602 3.2953394144 0.3520497012
O 2.6424675369 1.4007788687 -1.0151096044
O 3.8667508191 2.3280262956 1.0300857708
C 0.2717767927 -2.3303836808 -1.4244966559
O 0.5750226180 -3.5598214295 -2.0754915123
C -1.1078704515 -1.7640289051 -1.8421345105
O -1.9923009029 -2.8298327236 -2.1824434849
H -1.1230928503 4.8545348360 0.2219397678
H -2.7264941179 4.6839485584 0.8547456793
H -3.7355765379 0.1318170437 0.3044439163
H -3.9500022213 2.5664302212 0.7955969596
H -2.6432543439 -1.5606392781 -0.3488331186
H -0.4529651579 -3.5486118972 0.1890102528
H 1.0504506792 -2.8377762389 1.9658898738
H 1.9385695870 -3.4898888499 0.5622999399
H 4.0728692528 0.7269737514 1.9204645795
H 0.6341417440 3.0608828673 -0.0469574449
H 1.7114567006 1.1316353540 -1.3240533698
H 1.0537950994 -1.5879935674 -1.5923020264
H 1.0939609894 -3.3640733445 -2.8661757066
H -1.0399299489 -1.0368074911 -2.6566985106
H -1.4347532423 -3.5247046595 -2.5699276830
