22
CONF70
C 2.3356256880 -1.0259222713 0.1995567348
C 1.1832399685 -0.0989791228 -0.1749992158
C -0.1711319952 -0.7033304562 0.1836806987
C -1.3534543287 0.2135240729 -0.1226134767
C -1.3527507137 1.4960225535 0.6896499344
O -2.5662357369 2.1862174128 0.3551625089
O -2.5204680265 -0.5694518875 0.1840315468
O -0.2963798552 -1.9143446780 -0.5765463038
O 1.2603206546 0.2366202268 -1.5684305480
O 3.5954650855 -0.4103347082 -0.0836370754
H 2.2383699348 -1.9799553230 -0.3378749551
H 2.3149054535 -1.2278946150 1.2757456263
H 1.3159136256 0.8434139270 0.3676697901
H -0.1786035804 -0.9313327417 1.2628074481
H -1.3476636182 0.4638694882 -1.1943902952
H -1.3210318252 1.2570610090 1.7625051913
H -0.4787534970 2.1090774279 0.4314356135
H -2.6680466091 2.9250286523 0.9665547192
H -3.2895754420 -0.0147425744 -0.0019120399
H -1.2310181903 -2.1635614461 -0.5480453869
H 0.9672744958 -0.5469397296 -2.0573605517
H 3.5639993061 -0.1440450312 -1.0129899742
