50
CONF20
C 4.6787045323 -2.0872605867 1.4193068206
C 3.7686793476 -0.8851098139 1.7346863833
C 4.6505820696 0.3619936755 1.8683100787
C 3.0566700212 -1.1190097944 3.0804416532
C 2.7217306789 -0.7400643797 0.6278539050
C 2.6078001200 0.4052168151 -0.1633078451
C 1.6431274713 0.5111100746 -1.1635974674
C 0.7764921997 -0.5469522940 -1.3725771931
C 0.8630486772 -1.7067999843 -0.6167350472
C 1.8307895600 -1.7914481440 0.3740423537
O -0.1770404664 -0.4958615145 -2.4031168869
P -1.5558269712 0.3056145325 -2.2521591814
O -2.5141629033 -0.0144111072 -3.3207626025
O -1.0514704324 1.8282033579 -2.1417371149
C -1.9704410945 2.8677051123 -1.9269923335
C -2.9189950250 3.1792713362 -2.8911753303
C -3.7732990151 4.2527097715 -2.6560425437
C -3.6694587471 4.9970138733 -1.4842834024
C -2.7069207012 4.6656499391 -0.5344300748
C -1.8496603366 3.5915744313 -0.7499731140
O -2.0372501650 0.0786170703 -0.7244649650
C -2.4474780489 -1.1556613038 -0.2178615840
C -2.1682995969 -1.3735626100 1.1262978898
C -2.5519297375 -2.5742607196 1.7101541867
C -3.2017107138 -3.5479925692 0.9548418653
C -3.4742459536 -3.3080449772 -0.3878178955
C -3.1054159604 -2.1064664870 -0.9893463073
H 5.4383458802 -2.2018471934 2.2003477283
H 5.1881257762 -1.9445664774 0.4610577291
H 4.1114670811 -3.0206002843 1.3632535119
H 5.3782797504 0.2085924505 2.6711428864
H 5.2096186400 0.5623367501 0.9486200516
H 4.0614537403 1.2499975314 2.1196403831
H 2.4527082028 -2.0306467794 3.0655769350
H 2.3954936336 -0.2796332351 3.3187410241
H 3.7932498860 -1.2173483080 3.8853052259
H 3.2780584725 1.2427971569 -0.0136839236
H 1.5646854285 1.4030476818 -1.7740294185
H 0.1747086568 -2.5237716892 -0.8042332454
H 1.8852930779 -2.7028732698 0.9603902367
H -2.9861012878 2.5829619511 -3.7936306620
H -4.5223998293 4.5076500230 -3.3984604281
H -4.3375445471 5.8339409405 -1.3113657075
H -2.6227569017 5.2417278208 0.3812482616
H -1.0954555103 3.3064909817 -0.0250087910
H -1.6446314872 -0.6078851363 1.6876160594
H -2.3360516851 -2.7501998057 2.7590117740
H -3.4970546901 -4.4861226287 1.4122162257
H -3.9868665257 -4.0579469177 -0.9815342770
H -3.3266461794 -1.9078755686 -2.0317771344
