73
CONF314
C 0.4304246170 2.5681499173 -2.1937014905
C -0.6949684851 2.6761241571 -1.1892019337
O -1.9326333317 2.6345447385 -1.9453822327
C -3.1057853094 2.6525048444 -1.1488085119
O -3.1818510271 1.5525925198 -0.2596019253
C -3.5449001137 0.3094026981 -0.8691178348
C -5.0218572420 0.0220876770 -0.6163831150
O -5.7806973183 0.9861714714 -1.3398308261
C -5.4028136613 -1.4042720296 -1.0196550293
O -6.7750764407 -1.6574186492 -0.7140552442
C -4.4570175962 -2.3952237181 -0.3403401199
C -4.6729488572 -3.8306230873 -0.7753445466
O -3.8207633376 -4.7313854775 -0.0688550392
O -3.1103041700 -2.0578325264 -0.7248316281
C -2.7068623527 -0.7948202895 -0.2299694864
O -1.3677078840 -0.6005418331 -0.6218449990
C -0.3827834017 -1.2437579013 0.0727559485
C -0.6345164101 -2.2189810630 1.0382186040
C 0.4507066387 -2.7999984612 1.6856454854
O 0.2181864305 -3.7611547120 2.5914990201
C 1.7851761492 -2.4168853096 1.3809294781
C 2.9059438541 -3.1108397409 1.9563170563
O 2.7738777121 -4.0292645763 2.7896673772
C 4.2654811884 -2.7007029368 1.4556092150
C 4.2691790338 -1.2333036962 1.0491565865
O 3.2238078568 -0.9970682556 0.0506008828
C 1.9826629274 -1.4155868959 0.3972044533
C 0.9130449965 -0.8345541792 -0.2584406935
C 5.5674165680 -0.7685668362 0.4624490916
C 6.3247599308 0.2071071382 1.1124426227
C 7.5447952630 0.6284596371 0.5982642142
C 8.0148079177 0.0780758374 -0.5942255823
O 9.2147292162 0.5267206599 -1.0636248867
C 7.2633400840 -0.8925073803 -1.2632750320
C 6.0518172670 -1.3120590061 -0.7302373192
C -3.1632010591 3.9215574056 -0.2977757873
O -3.3594970884 5.0670963739 -1.1342834385
C -1.8814208282 4.0608338418 0.5254051676
O -1.8709490900 5.2798502286 1.2726531058
C -0.6523306193 3.9682291513 -0.3758901473
O 0.5453753162 3.9578938606 0.4018132511
H 0.4042095894 3.4138804449 -2.8887652268
H 0.3383096065 1.6393578917 -2.7641151119
H -0.6734553947 1.8253822228 -0.4956666719
H -3.9349876866 2.6367721332 -1.8646292103
H -3.3344570091 0.3260153765 -1.9471147847
H -5.2041564489 0.1293707842 0.4686163921
H -5.3136362597 -1.5092603848 -2.1081783095
H -6.8859295062 -1.6042759652 0.2463360696
H -4.5557207470 -2.3217644853 0.7571624726
H -4.5173959469 -3.9034030951 -1.8624729532
H -5.7019779352 -4.1226093510 -0.5509162636
H -2.9090916606 -4.4808906027 -0.2688045837
H -2.7958054099 -0.7562074088 0.8694475305
H -1.6315628449 -2.5676762271 1.2726822202
H 1.1162863264 -4.0774989804 2.8933156655
H 4.5156859310 -3.3333193917 0.5924726949
H 4.0181696123 -0.6163037693 1.9231754227
H 5.9573512452 0.6453731910 2.0362804981
H 8.1346291545 1.3848573910 1.1055077623
H 9.4274737725 0.0776541500 -1.8928518259
H 7.6310133388 -1.3154643512 -2.1946566721
H 5.4746849005 -2.0656929821 -1.2579955298
H -4.0316274441 3.8779644644 0.3668846823
H -2.7584607038 4.9925043444 -1.8896071706
H -1.8354622091 3.2477129458 1.2596299099
H -2.1249006949 5.9816118123 0.6543188075
H -0.6411459257 4.8256812924 -1.0718752221
H 0.4746298545 4.6930227987 1.0266319258
H 1.3935430744 2.5675319787 -1.6774566693
H 5.0140124543 -2.8815029721 2.2318780069
H -6.7139264680 0.7746265631 -1.1989747929
H 1.0728380812 -0.0600513622 -0.9979980951
