41
CONF9
C -2.5072281352 -1.7508889562 -1.5961493220
C -2.8680604737 -0.7382096567 -0.5578439390
C -4.0232427811 0.0339131128 -0.6151041143
C -4.2452749808 0.9573092448 0.4085864011
N -3.3686338660 1.1199625024 1.4054638078
C -2.2839286119 0.3351851181 1.3676032697
N -2.0027435278 -0.5969688375 0.4543828700
N -1.3800918033 0.5519710337 2.3970609968
C -0.0853950053 0.0574016470 2.6146015026
O 0.6188596398 0.5496951209 3.4753000106
N 0.2703948570 -1.0050681782 1.8061731270
S 1.8816111854 -1.5487486935 1.7112491396
O 1.8646030789 -2.4917884550 0.5886787951
O 2.3316508162 -1.9477151323 3.0385039453
C 2.8254689714 -0.0976356274 1.2109789776
C 3.5565020911 0.5691587436 2.1854623775
C 4.3707921491 1.6337902236 1.8138721772
C 4.4647465159 2.0050145119 0.4771890285
C 3.7365366077 1.3247690558 -0.4934575298
C 2.8923752333 0.2743397315 -0.1352747712
C 2.0341903666 -0.3492491134 -1.1914399026
O 0.8235370296 -0.3179119569 -1.1928205695
O 2.7842766980 -0.8759210150 -2.1722995889
C 2.0326489607 -1.5148049094 -3.2288335722
C -5.4667673442 1.8220305513 0.4459647979
H -1.5205858779 -1.5070707927 -2.0037311487
H -2.4282870924 -2.7421799851 -1.1382615660
H -3.2432047640 -1.7842995867 -2.4012850336
H -4.7306047909 -0.0803779470 -1.4278869208
H -1.6237962624 1.3061388535 3.0232368268
H -0.3250883229 -1.1693135768 0.9772876517
H 3.4806256215 0.2452276903 3.2163410651
H 4.9381952725 2.1641960965 2.5708567014
H 5.1106172200 2.8262057181 0.1844686184
H 3.8105365756 1.6102386534 -1.5373678052
H 1.3761599254 -0.7920167988 -3.7203958950
H 1.4355775772 -2.3308216614 -2.8136040187
H 2.7792406396 -1.8968768351 -3.9238957656
H -6.1285849173 1.6214084509 -0.3984041148
H -5.1754120818 2.8767209473 0.4325584070
H -6.0122162986 1.6531901947 1.3793936081
