49
CONF4
C -5.6171892145 -0.1693306840 -2.3620254000
C -4.3738410622 -0.8895652214 -1.8326178007
C -3.4574176074 -1.2938855973 -2.9912555015
C -3.6221959883 -0.0022936140 -0.8383101473
C -4.3457602068 0.3624962996 0.4890656196
C -4.4315634220 -1.0289724731 1.1888025561
C -3.0965363929 -1.7172823539 0.7791344260
C -2.4038856324 -0.6384050257 -0.1086399002
C -2.0435253405 0.4926670116 0.8263163593
C -3.2424052200 1.1122804461 1.1938019926
C -3.2615537015 2.1568964224 2.1031598578
C -2.0393510109 2.5847643122 2.6267560983
C -0.8361083163 1.9759594375 2.2825626009
C -0.8299437861 0.8986226344 1.3802736729
N 0.3254593715 0.1975619786 0.9926095248
C 1.6259004491 0.4136636183 1.3570159518
O 1.9956988622 1.3014929216 2.1186643926
C 2.6267492569 -0.5152541348 0.7707995895
C 3.9658777771 -0.3998218743 1.1089435575
N 4.6378759665 -1.3564608625 0.4350127804
N 3.8338265590 -2.1052509493 -0.3331066584
C 2.6100968183 -1.6068606905 -0.1400137737
C 1.5140977597 -2.2627883123 -0.8959239698
F 0.5359631022 -2.7408886948 -0.0410512572
F 0.8706687915 -1.3608854515 -1.7229676061
C 6.0636344379 -1.6353511829 0.4682091117
H -6.3209714467 0.0713508798 -1.5595092891
H -6.1445364092 -0.7893356901 -3.0941052378
H -5.3371527623 0.7686316020 -2.8560976021
H -4.7030628032 -1.8059422616 -1.3267941944
H -3.0815483769 -0.4058285318 -3.5131293940
H -2.5937558968 -1.8690539614 -2.6443485813
H -3.9976747649 -1.9073451533 -3.7194808495
H -3.3075204400 0.9138940333 -1.3565628686
H -5.2964916692 0.8929181224 0.4134313707
H -5.2988271004 -1.5889935107 0.8253749713
H -4.5347736897 -0.9196397383 2.2710397376
H -3.2732404455 -2.6328775328 0.2062039239
H -2.4754520233 -1.9795933955 1.6391562324
H -1.6083163958 -1.0235325997 -0.7482415300
H -4.1910250070 2.6369784768 2.3933604047
H -2.0157186880 3.4166336460 3.3239042186
H 4.4419403812 0.3014273122 1.7774813646
H 1.8799698613 -3.0947634173 -1.5049758562
H 6.2372098426 -2.6464191582 0.8461456037
H 6.5450115010 -0.9109488841 1.1266282155
H 6.4814899364 -1.5505855844 -0.5381975486
H 0.1494267512 -0.5708571449 0.3651399005
H 0.0962077360 2.3236066771 2.7023249769
