92
CONF656
C -6.4275033646 0.0109126037 -2.2522608681
C -6.0304646106 1.1204400411 -1.2810693402
C -5.1946581936 0.6364703502 -0.1044587275
C -4.7581904439 1.7582704830 0.8468930222
C -3.8187802517 1.2221374142 1.9032163972
C -2.9057750588 2.0763754795 2.6980714259
O -2.3941240217 1.2256961125 1.6527774235
C -2.6578809141 1.6607770734 4.1012057768
C -1.6937173222 0.9032568417 4.6404582553
C -0.4839921603 0.2594083019 4.0604004023
O -0.1419285187 -0.8200699561 4.5377123682
C 0.3885330634 0.9894036231 3.0504914478
C 1.5817599107 0.1364054057 2.6118620281
C 1.2258284514 -1.1043385168 1.7692015306
C 1.0075563197 -0.7100705502 0.2969014395
C 0.0279736650 -1.5649061803 -0.5341797330
C -1.4187585889 -1.3439970137 -0.0508675219
C -2.4561874275 -1.6755506734 -1.1382794850
C -3.8291218039 -1.2949581028 -0.6486540706
O -4.6815270407 -2.0783773246 -0.2786271012
O -3.9630739662 0.0462919339 -0.6351977664
O -1.7457316627 -2.0403497423 1.1614274971
C 0.4025692114 -3.0395791326 -0.6635177480
O 2.3095298705 -0.6874559096 -0.3318595856
C 2.6129897551 0.4773578958 -1.0788492394
C 4.1210943926 0.4489313164 -1.3321717468
C 4.5159564659 -0.5951385566 -2.3931689162
C 3.6174898262 -0.4292256378 -3.6214396129
C 2.1475787293 -0.4629162570 -3.2278502921
O 1.8557885730 0.5792556916 -2.2642846677
C 1.2173497031 -0.2326144628 -4.4002395009
N 5.9467926150 -0.3958556904 -2.7125297707
C 6.7993353500 -0.8409252917 -1.6008820139
C 6.3667006982 -1.0880794564 -3.9367788865
O 4.5073064967 1.7545734967 -1.7604649530
C 2.2953958516 -2.2012620203 1.9338789021
C 3.6858672313 -1.8092256159 1.5356496241
O 4.4831361121 -2.5717207939 1.0140902482
C 0.8850225942 2.3042193918 3.6868036462
C -2.7869878095 3.5644679397 2.4650285096
C -5.9707727626 2.3839067048 1.5498819011
H -5.5495775916 -0.4624295491 -2.7027830497
H -7.0101037368 -0.7653002395 -1.7460958832
H -7.0377057157 0.4189568281 -3.0632935132
H -6.9353172291 1.5874919138 -0.8793582331
H -5.4713632444 1.9053516465 -1.8066412809
H -5.7280941671 -0.1407629480 0.4546847041
H -4.2362254029 2.5193416010 0.2558992418
H -4.1618070758 0.3030092803 2.3879873585
H -3.4320927936 2.0231795249 4.7787586612
H -1.8012405782 0.6574052483 5.6961325076
H -0.2404110521 1.2482700009 2.1907516180
H 2.2666249886 0.7804505111 2.0458627647
H 2.1227529618 -0.1749758134 3.5135321081
H 0.2877766453 -1.5218707396 2.1404294920
H 0.6077460218 0.3153926074 0.2796477668
H 0.0616801009 -1.1169104295 -1.5346966758
H -1.5327685731 -0.2873927763 0.2054919396
H -2.4516178706 -2.7444438213 -1.3687496000
H -2.2198374366 -1.1093017667 -2.0448310550
H -1.7550733503 -2.9885870603 0.9729704722
H 1.4512834290 -3.1442644799 -0.9570892692
H 0.2607195423 -3.5832657830 0.2756068149
H -0.2071697270 -3.5272459511 -1.4305646736
H 2.3547443268 1.3774704579 -0.5021791897
H 4.5929425374 0.2124833956 -0.3686442546
H 4.3444639195 -1.6024366717 -1.9666609472
H 3.7889299268 -1.2419945372 -4.3334251502
H 3.8355799209 0.5186385171 -4.1299671392
H 1.9232115759 -1.4358776749 -2.7654161472
H 0.1739250397 -0.2620004144 -4.0718889197
H 1.3660030602 -1.0114558766 -5.1537452865
H 1.4149387208 0.7411215352 -4.8603531729
H 7.8468857493 -0.6544324716 -1.8551253620
H 6.6778246619 -1.9193877374 -1.3919217331
H 6.5753084036 -0.2870073443 -0.6858497370
H 6.1713508558 -2.1754454323 -3.8962192792
H 5.8647380894 -0.6751086190 -4.8140654512
H 7.4428220750 -0.9413182506 -4.0674052547
H 5.3104790808 1.6037884613 -2.2920341896
H 2.0384772387 -3.1305375591 1.4218035815
H 2.3546206517 -2.4320675649 3.0094626888
H 4.0028488592 -0.7833175708 1.8123784125
H 1.4712706870 2.8641443784 2.9525866562
H 1.5271935447 2.0901027459 4.5483228921
H 0.0586538264 2.9341044105 4.0233898057
H -1.7472720074 3.8726075848 2.6125965189
H -3.0935197059 3.8388620570 1.4550686722
H -3.4061021744 4.1080073036 3.1852767267
H -6.5456843397 1.6179029232 2.0821786149
H -6.6351626201 2.8812756735 0.8403544599
H -5.6400310140 3.1278399117 2.2795096917
