51
CONF66
C 0.0906375243 -2.8781441645 2.0006002320
N -0.8093993444 -2.8231306526 0.8480466525
C -0.4069859923 -3.8575307052 -0.1164921976
C -1.3629549194 -3.9260150380 -1.2983697475
C -1.4220832698 -2.5724890120 -1.9961518492
C -1.7666988029 -1.4825668817 -0.9855851357
C -0.8055583210 -1.4903568240 0.2070273127
C -1.1752657793 -0.4053313211 1.2278515856
C -1.3391071400 0.9934406233 0.6229469891
N -0.2273613472 1.3551438158 -0.2558058224
C -0.4829239299 2.0481084030 -1.4522748333
C -1.5954522197 2.8826225163 -1.6047259539
C -1.8474430036 3.5103756825 -2.8213330232
C -0.9737565823 3.3533425685 -3.8907359949
C 0.1614445978 2.5618307695 -3.7382785289
C 0.3944802436 1.8983788540 -2.5389192277
S 1.7593701300 0.7685532905 -2.3825902818
C 2.1427457149 1.0683477450 -0.6733628565
C 1.0915314439 1.2977929760 0.2234126850
C 1.3804602179 1.4718546655 1.5814690856
C 2.6908336326 1.3615346683 2.0470198004
C 3.7330849883 1.1293767090 1.1424548660
C 3.4542097661 1.0126044227 -0.2114970576
S 3.1438175315 1.5188630782 3.7572949035
C 1.5373648359 1.6966826432 4.5969033107
H -0.3014052139 -2.2965054949 2.8391096736
H 1.1110438370 -2.5124521405 1.7683460377
H 0.1729707555 -3.9156515761 2.3387774320
H -0.3903920973 -4.8194707944 0.4094140833
H 0.6233486144 -3.6712360066 -0.4896475157
H -1.0328683210 -4.7109387102 -1.9887214107
H -2.3605417677 -4.2021124356 -0.9339653182
H -2.1529336421 -2.5810213848 -2.8125141843
H -0.4433137786 -2.3465948224 -2.4417396620
H -1.7212448038 -0.5069507726 -1.4800930463
H -2.7904308108 -1.6271366425 -0.6121073408
H 0.2133434718 -1.2694096997 -0.1773989204
H -0.4169718401 -0.3687487819 2.0126388122
H -2.1249498872 -0.6754327465 1.7080662265
H -2.2414515779 1.0151622934 0.0079809423
H -1.4948783619 1.7299209907 1.4290696198
H -2.2649047303 3.0488487263 -0.7683445354
H -2.7251941688 4.1402462324 -2.9216377150
H -1.1638629825 3.8500782399 -4.8357669024
H 0.8616938668 2.4372115032 -4.5580755463
H 0.5715618428 1.6983693115 2.2621142113
H 4.7561234712 1.0481617359 1.4945935175
H 4.2612908400 0.8469281327 -0.9179468232
H 1.7642742411 1.7446616334 5.6643921497
H 1.0295999749 2.6197847308 4.3038383163
H 0.8951019080 0.8309996727 4.4107133773
