42
CONF5
C -0.8909010168 -0.6380246324 -2.8136645060
C 0.0375663204 -1.4338013122 -2.1475021871
C 0.1764377813 -1.3350074542 -0.7682261937
C -0.6110659630 -0.4388726835 -0.0371950624
C -1.5477857226 0.3448010393 -0.7119404052
C -1.6883085042 0.2456010180 -2.0924459110
C -0.4060309038 -0.3003568769 1.4550622340
C -0.9310199790 -1.4437508591 2.2999446639
C -0.8468573955 -1.3408675173 3.6918524564
C -1.3321900699 -2.3525452341 4.5088370714
C -1.9140515111 -3.4869337775 3.9471044572
C -2.0088407311 -3.5941147835 2.5653630748
C -1.5204353551 -2.5783212787 1.7459702310
C 1.0908167527 -0.0279467083 1.6938257053
O 1.8004097762 -0.7073645790 2.3901347865
C 1.6920471239 1.1716408071 0.9378078977
C 0.7420437558 2.2799373806 0.4773977379
O -0.0500522232 2.8746952659 1.1795922081
C 0.9744832382 2.5083429935 -0.9675754026
C 0.3733137050 3.4406113350 -1.8050542000
C 0.7505876821 3.4465528514 -3.1431102896
C 1.7026801286 2.5396888934 -3.6295842294
C 2.3026856562 1.6094005258 -2.7879329663
C 1.9263645753 1.6106020887 -1.4501515840
C 2.4280738539 0.7416970128 -0.3564015173
O 3.2753750060 -0.1133718896 -0.4473465570
H -0.9930679106 -0.7071584233 -3.8918912139
H 0.6630624559 -2.1250679725 -2.7030103413
H 0.9097856353 -1.9478391256 -0.2505242081
H -2.1557570976 1.0498708083 -0.1519480250
H -2.4153498900 0.8666343090 -2.6060203176
H -0.9137082244 0.6207134559 1.7746107348
H -0.3904090689 -0.4618520084 4.1369717326
H -1.2545043112 -2.2573021776 5.5871987206
H -2.2933183106 -4.2788162304 4.5849117195
H -2.4666606677 -4.4701305192 2.1168296826
H -1.6080543483 -2.6704535812 0.6689641960
H 2.4413230530 1.5950879520 1.6180129636
H -0.3662237652 4.1322277815 -1.4153022130
H 0.3031235001 4.1615771182 -3.8261742408
H 1.9734632553 2.5689083193 -4.6801960428
H 3.0409510110 0.9013083675 -3.1491426711
