42
CONF11
C -1.8893818312 1.2859592345 2.5276578357
C -3.2741758990 0.6668704075 2.3449434453
C -3.3511727002 -0.1534666858 1.0834531973
O -4.6245034213 -0.7620361387 0.9335806763
C -4.6713205937 -1.1184866921 -0.4543458993
C -3.8628804188 -0.0015183469 -1.1563717770
O -3.2064284200 0.6795563105 -0.0715520604
C -2.8693239688 -0.5182666394 -2.1860877939
O -1.9279879937 -1.4365462254 -1.6113432784
C -0.7916556985 -0.9694821176 -1.0041290459
C -0.2915440337 0.3314602947 -1.1121430886
C 0.8908952074 0.6699815856 -0.4611187479
C 1.5710214696 -0.2816958616 0.2880117995
C 1.0837479817 -1.5772899341 0.3984273213
C -0.1002155797 -1.9179441404 -0.2441586885
O 2.7120633287 0.0702983241 1.0067452059
C 3.8667519132 0.3504107685 0.3064441158
C 4.0488844650 0.0197582831 -1.0359537722
C 5.2670845285 0.3154101842 -1.6459223274
C 6.2934096342 0.9295206588 -0.9331821656
C 6.0956759361 1.2495889635 0.4102946098
C 4.8866002552 0.9651895337 1.0342267422
H -1.8285163429 1.8237696545 3.4775450516
H -1.6636313236 1.9904527730 1.7217454901
H -1.1139152495 0.5113259298 2.5260105956
H -4.0508696065 1.4390181919 2.3048395936
H -3.5059363944 0.0012688724 3.1840704270
H -2.5673438807 -0.9344332565 1.0658902674
H -4.2027478188 -2.0993638472 -0.6126666470
H -5.7154044041 -1.1491104430 -0.7703810818
H -4.5227001683 0.7189035021 -1.6559151705
H -2.3642258828 0.3077995160 -2.6947015472
H -3.4144454858 -1.0943487998 -2.9418181259
H -0.8161358766 1.0962139189 -1.6693669093
H 1.2809351171 1.6806909679 -0.5317663346
H 1.6238125448 -2.3090606362 0.9903666731
H -0.5035777588 -2.9221659106 -0.1634977719
H 3.2558702858 -0.4622365128 -1.5965083709
H 5.4092854315 0.0566013787 -2.6908407832
H 7.2375040499 1.1560529092 -1.4172920901
H 6.8870019637 1.7286583876 0.9787635521
H 4.7194978349 1.2107435364 2.0780469783
