30
CONF1
N 5.5171550916 -0.4889351803 0.6413317977
C 4.1794707046 -0.2589068239 0.5657586981
N 3.7726071379 0.9422437273 1.0544027121
C 2.4748768628 1.2191626685 0.9554019846
N 2.0125170004 2.3856323510 1.4341357053
C 1.5675474744 0.2828617222 0.3556640179
N 0.2617060571 0.5766444159 0.2225791546
C -0.5311187489 -0.3101194395 -0.3471599311
C 0.0108810043 -1.5901710499 -0.7541152177
N -0.7973750956 -2.5512194986 -1.2689899452
N 1.3048497982 -1.8780457643 -0.6410137270
C 2.1155101114 -0.9405172489 -0.1007159577
N 3.4332721025 -1.2175625183 0.0011131580
C -1.9592612871 0.0421118885 -0.4981409660
C -2.6357536029 0.6398299667 0.5741469712
C -3.9684197115 1.0140684635 0.4488557003
C -4.6461051024 0.8034471248 -0.7511693711
C -3.9795257609 0.2203710388 -1.8262362560
C -2.6468130679 -0.1612013992 -1.7027071446
H 5.8483658467 -1.4242391833 0.4710000836
H 6.0718912335 0.1110891911 1.2289430893
H 1.0439369003 2.6266343838 1.3028843701
H 2.6563007591 3.0727547451 1.7900734729
H -1.7943753281 -2.4793227546 -1.1456746157
H -0.4114253830 -3.4796781706 -1.3497564215
H -2.1066093758 0.8006813209 1.5078639815
H -4.4816330826 1.4677719021 1.2911016843
H -5.6870140976 1.0952768565 -0.8483469589
H -4.4951129098 0.0687684983 -2.7693794071
H -2.1303451283 -0.5894311278 -2.5561921571
