40
CONF167
C 1.6382734530 1.5117418437 2.6036797106
C 1.4962146643 0.0546323659 2.2427637383
O 1.6728675422 -0.0449935179 0.7886620093
P 1.6405577706 -1.4414213863 0.0174134555
S 0.8997514043 -2.9996402372 0.9001784641
O 3.1213441847 -1.7073280549 -0.5006958947
C 3.9598270006 -0.6053174380 -1.0173745049
C 4.9617105909 -0.1966340012 0.0346827443
O 0.9505448849 -0.9934212029 -1.4124249243
C -0.3450444678 -0.5637640773 -1.5257151546
C -0.8276282508 -0.3486705317 -2.8120615932
C -2.1420225020 0.0881882075 -2.9011005865
N -2.8940232973 0.2859094793 -1.7956260122
C -2.3245306207 0.0456345989 -0.6140377783
N -1.0595204659 -0.3772122761 -0.4330102095
C -3.1411958652 0.2733407914 0.6339836220
C -3.2135549219 -1.0001611442 1.4846995039
C -2.5582438316 1.4408710050 1.4424297291
C -2.7960194746 0.3566041107 -4.2181472422
H 2.6331204582 1.8831384842 2.3429155959
H 1.4958221138 1.6248160876 3.6825341086
H 0.8846542420 2.1141778289 2.0887861325
H 0.5029559674 -0.3337373487 2.4879077378
H 2.2576018069 -0.5623396239 2.7299228619
H 4.4430628970 -1.0216706295 -1.9039172463
H 3.3218391539 0.2288688769 -1.3231582891
H 5.6139191411 0.5804147062 -0.3767327920
H 5.5811629316 -1.0473987524 0.3312877439
H 4.4583390199 0.2049006387 0.9184826341
H -0.2091395583 -0.5167397272 -3.6850215229
H -4.1495621334 0.5409967836 0.3024468217
H -3.8598253934 -0.8300897816 2.3513427926
H -2.2184119311 -1.2779309450 1.8464333930
H -3.6195000638 -1.8394125591 0.9110182923
H -1.5516355089 1.1941369019 1.7953823675
H -2.5005512061 2.3533004065 0.8404655385
H -3.1891579561 1.6405020342 2.3140755683
H -3.6726606477 -0.2891355663 -4.3341940358
H -3.1508853540 1.3916701643 -4.2524556554
H -2.1104569773 0.1831734913 -5.0491160938
