28
CONF99
O -1.6715202459 -0.0225944500 -3.5411971618
C -1.7168989691 0.6895930124 -2.3020594373
C -1.7380083664 -0.3077858235 -1.1742574667
O -0.4714207012 -1.0129956133 -1.0970380689
C -0.1365810984 -1.2714821523 0.2517088975
C -1.2944740747 -0.7584448626 1.1053797308
C -1.9193073941 0.3127968419 0.2080023267
O -3.3023437460 0.5470243165 0.4345168780
N 1.1527719223 -0.5739476723 0.5753843268
C 1.6405902462 0.4582759738 -0.1729556021
C 2.7890808904 1.1073126730 0.1324569089
C 3.5551052461 0.7156592483 1.2849005387
O 4.6093899244 1.2194351008 1.6694845379
N 2.9879470495 -0.3553035212 1.9934616324
C 1.8148311080 -1.0236626000 1.7132334659
O 1.3839770969 -1.9365868223 2.4079634306
H -1.6743255100 0.6257169250 -4.2554721089
H -0.8493691507 1.3574758851 -2.1943633321
H -2.6326135955 1.2950653623 -2.2232914125
H -2.5400075202 -1.0414118037 -1.3467665073
H 0.0621301843 -2.3368561689 0.3913905593
H -0.9685677157 -0.3917510001 2.0799077462
H -2.0213429248 -1.5646888989 1.2495750683
H -1.3502863871 1.2536129220 0.2705893487
H -3.3894986426 1.0568695361 1.2493114083
H 1.0487194298 0.7140692039 -1.0430612656
H 3.1495320052 1.9179844204 -0.4855509201
H 3.4824915425 -0.6733794186 2.8187464625
