53
CONF1
C -3.8329188758 -0.1136177777 -0.6248006514
C -2.6812510812 0.8750626501 -0.8202942489
N -1.5289691325 0.1854424929 -0.1968235200
C -1.9699235917 -1.0098883903 0.5561221952
C -3.4683349857 -0.7895927234 0.7140241256
N -3.7616331683 0.0260217595 1.9011514919
C -5.1511926971 0.5157363641 1.8913935486
C -5.4947758865 1.3338490383 0.6455360896
C -5.2263993414 0.5180040096 -0.6222439821
C -0.2361099493 0.6024366199 -0.2768289037
C 0.1205678586 1.9587201914 -0.5141692955
F -0.8674785472 2.8807234197 -0.6350277141
C 1.4064427401 2.3949973597 -0.6212828831
C 2.4736361284 1.5039346296 -0.4300060776
C 3.8306025242 1.9709629595 -0.5948656822
O 4.0956868845 3.1824235704 -0.8590367511
C 4.8582492731 0.9740866711 -0.4725320131
C 4.5216343923 -0.3058745776 -0.1046200239
N 3.2608875235 -0.7207852025 0.1077751157
C 3.0801128732 -2.0380819042 0.7219976875
C 2.4956469449 -2.1056131409 2.0932276535
C 3.9598119661 -2.3980148188 1.8832257392
C 2.1872271391 0.1481049626 -0.1371704394
C 0.8537997781 -0.3010708803 -0.1582846713
O 0.5866591479 -1.6464298163 -0.1571663759
C 0.4148846576 -2.1602339876 -1.4975080987
C 6.2863155343 1.3021859908 -0.6749574758
O 6.5333781085 2.5841632674 -0.9601533220
O 7.1906069394 0.4822739082 -0.5938252123
H -3.7779899213 -0.8760695706 -1.4126647675
H -2.4814438388 1.0840136351 -1.8764860865
H -2.9007514219 1.8226796911 -0.3185279691
H -1.7937130687 -1.9361314334 -0.0009312237
H -1.4447820357 -1.0744027031 1.5146118985
H -3.9938438386 -1.7469705579 0.8206633464
H -3.1376196668 0.8306192725 1.9137886648
H -5.8135805288 -0.3606947488 1.9495082704
H -5.3157112703 1.1071712496 2.7993115860
H -4.8996631628 2.2563696181 0.6484509823
H -6.5484329743 1.6364729098 0.6745873926
H -5.3609685584 1.1355066980 -1.5187091909
H -5.9652644958 -0.2916587580 -0.6821877818
H 1.6100841889 3.4396768731 -0.8256336844
H 5.2959051886 -1.0456307232 0.0621706429
H 2.8214951057 -2.8197011556 0.0163072968
H 1.8121152314 -2.9223483803 2.2951762749
H 2.2500497452 -1.1618192855 2.5696013248
H 4.3017747017 -3.4260006214 1.9311818016
H 4.6658485239 -1.6584594026 2.2456504156
H -0.4175219369 -1.6551141635 -2.0025999372
H 0.1951271654 -3.2239495378 -1.3898208921
H 1.3364296463 -2.0226901360 -2.0757213624
H 5.6252929535 3.0592051988 -0.9703380671
