21
CONF17
C -1.6451429997 -0.2908462170 0.3872502152
C -2.9013776105 0.5697771535 0.3287141660
O -3.9387500528 -0.2201762951 0.9113940939
C -0.4665778089 0.3885404212 -0.2683925735
C 0.8600091821 -0.4128510441 -0.1102221171
C 2.0478214270 0.0697199055 -1.0057776201
C 3.4506935424 -0.4255401690 -0.5247055186
F 4.3529337500 -0.1768221164 -1.4844900793
F 3.8284794611 0.2129834052 0.5884302142
F 3.4274700899 -1.7454627312 -0.2875629111
F 1.8605216731 -0.3938945841 -2.2612209433
F 2.0870239717 1.4211483936 -1.0368411541
F 1.2354129793 -0.3475310359 1.1944586729
F 0.6140137502 -1.7129696074 -0.4152044104
F -0.2692402213 1.6307158088 0.2704751936
F -0.6889363466 0.5595607042 -1.6106365592
H -1.8301218828 -1.2409591371 -0.1207422482
H -1.3926725748 -0.5077477184 1.4301346415
H -2.7473155229 1.5012980952 0.8899711457
H -3.1333380997 0.8245652325 -0.7153719676
H -4.7509065321 0.2964917371 0.9025295550
