63
CONF121
C 2.9668714549 0.5419820990 -1.1150790521
C 1.5920818729 1.1688682535 -0.9034115412
N 1.1024895164 0.9208613349 0.4600179141
C 2.0199446864 1.5365358890 1.4287339959
C 3.4140073599 0.9244105921 1.3312744648
C 3.9519101627 1.0992438530 -0.0884776475
N 5.2965768756 0.5468416383 -0.2487762070
C 5.7111921818 -0.7766583708 -0.1196149822
C 5.0349583116 -1.9512060157 0.1885411385
C 5.7764987338 -3.1356489133 0.2353346410
C 7.1494538619 -3.1486996609 -0.0169326560
C 7.8344681524 -1.9710678459 -0.3266469616
C 7.0988939780 -0.7986779060 -0.3728559128
N 7.4751319091 0.5033851439 -0.6453192247
C 6.3863628514 1.3525649682 -0.5766005429
O 6.3796185805 2.5675399971 -0.7647717956
C -0.2532377018 1.4568480599 0.6465376594
C -1.3281676610 0.6862189009 -0.1158543589
C -2.7266408612 1.1712302628 0.2638758278
C -3.8326546650 0.4522091924 -0.5251650666
C -3.8540796170 -1.0362963165 -0.2149826353
C -4.2370346299 -1.4931364325 1.0502779906
C -4.2393486112 -2.8500038828 1.3561137022
C -3.8551465103 -3.7438818853 0.3693684377
C -3.4730067734 -3.3392015555 -0.8963411391
C -3.4764025957 -1.9734800527 -1.1778927725
F -3.8573916996 -5.0736103161 0.6589983040
C -5.2166332900 1.0512632625 -0.3315645148
C -6.1927978649 0.8151915943 -1.3068697389
C -7.4876305844 1.3040854411 -1.1735762132
C -7.7932706975 2.0374295299 -0.0387305237
C -6.8642023842 2.2982254591 0.9507157748
C -5.5714269502 1.7978775103 0.7940657918
F -9.0559082496 2.5247843317 0.1030194989
H 3.3210265263 0.7645014151 -2.1277250301
H 2.8852664818 -0.5459579307 -1.0194676746
H 0.8895507931 0.7392358431 -1.6228121242
H 1.6477246267 2.2588155408 -1.1068434337
H 2.0895248189 2.6326276655 1.2681508920
H 1.6201442459 1.3798556582 2.4368688245
H 3.3608904059 -0.1374284576 1.5945116964
H 4.0842516778 1.4152200795 2.0455884366
H 4.0701515046 2.1733638289 -0.2777418705
H 3.9710907606 -1.9666888580 0.3885456794
H 5.2666007471 -4.0632662305 0.4739252920
H 7.6957878524 -4.0850782083 0.0273804300
H 8.9011314986 -1.9694280283 -0.5245010182
H 8.4043695377 0.8244955045 -0.8659550735
H -0.2991419662 2.5299450906 0.3692630299
H -0.4833058564 1.3985103467 1.7184367114
H -1.1986498275 0.8000293961 -1.1988778449
H -1.2275525348 -0.3828901684 0.1092654683
H -2.8793233498 1.0239481185 1.3406243470
H -2.8065225372 2.2497016212 0.0739849810
H -3.5905037146 0.5520020722 -1.5910832950
H -4.5438004966 -0.7813072932 1.8114238645
H -4.5354475262 -3.2122896993 2.3348072620
H -3.1802505085 -4.0723974967 -1.6401961874
H -3.1752848663 -1.6355832626 -2.1655046007
H -5.9345483851 0.2355184397 -2.1893405714
H -8.2440849589 1.1270013579 -1.9306488023
H -7.1434072721 2.8808009353 1.8221085799
H -4.8411634697 2.0057520485 1.5684012814
