41
CONF25
C 6.3980923567 0.1585479787 1.9218120071
C 5.0833756484 0.4956229981 1.2881837088
C 3.8729251668 0.0683758652 1.8278791491
C 2.6570452598 0.3952068208 1.2513730863
C 2.5744189768 1.1658856340 0.0958571761
C 3.7792067242 1.5902705512 -0.4507163323
C 4.9957038492 1.2699965132 0.1367130119
F 6.1242627044 1.7284152048 -0.4393371552
F 3.7839681789 2.3353567218 -1.5714509472
C 1.2456548536 1.4813836141 -0.5150737437
O 0.6908601474 0.2429234116 -1.0427587417
C -0.5624634825 -0.0999863669 -0.6407199378
O -1.2614051733 0.6036496031 0.0617539721
C -0.8935032275 -1.4333120975 -1.1779040554
C -2.3534013898 -1.8834337543 -1.3905494595
C -1.5088242170 -2.5160306496 -0.3030889773
C -1.0213418656 -3.9214424875 -0.5792463423
C -1.8040676557 -2.2525098996 1.1544760941
C -3.4731107322 -1.0054030911 -1.0780235546
C -4.5634065610 -0.8420099281 -1.8306931612
C -5.7049783706 0.0515591799 -1.4500769536
F -6.8754274128 -0.6295852923 -1.3534564805
F -5.9090926873 1.0321011857 -2.3667057051
F -5.4945474284 0.6533636066 -0.2619811034
Cl -4.8198758290 -1.6364020053 -3.3704109364
F 1.5214219956 -0.0523670732 1.8208126981
F 3.8748933082 -0.6809014504 2.9474173856
H 7.1871872026 0.1145178261 1.1697921661
H 6.6722282591 0.9230637332 2.6572751657
H 6.3410641400 -0.8011492267 2.4377068650
H 1.3490447238 2.1776796039 -1.3479962040
H 0.5601827651 1.8948739815 0.2276935618
H -2.4699112776 -2.4800883602 -2.2896260773
H -0.8302577260 -4.0792287735 -1.6439406059
H -0.0953333445 -4.1138819036 -0.0269061004
H -1.7731829380 -4.6463749591 -0.2493580673
H -2.1053704381 -1.2249623642 1.3551435229
H -2.6009196346 -2.9244643574 1.4900720241
H -0.9094406242 -2.4654677673 1.7491167631
H -3.4392641554 -0.4364266906 -0.1567434020
H -0.2028214382 -1.7849754421 -1.9365110307
