38
CONF1
C 2.0711574612 2.4401587670 1.9384969555
C 2.6578684553 1.0675527283 1.6141016744
C 2.4961939893 0.6724886239 0.1600483359
O 1.0918834779 0.5280331468 -0.1135369386
C 0.8478664728 0.1136596747 -1.4302234619
C -0.5867220164 -0.3396869486 -1.5747689914
N -1.4871983259 -0.4428848872 -0.6888891991
C -1.3600258520 -0.1238625136 0.6602151606
C -1.7380992361 1.1475292643 1.1067223455
C -1.7001020452 1.4713182858 2.4535444227
C -1.3019227666 0.5071077790 3.3724572080
C -0.9654815427 -0.7755594348 2.9702113092
C -1.0071165166 -1.0953844505 1.6147976002
C -0.6399574923 -2.4783486619 1.1690154922
F 0.4272241936 -2.4874849956 0.3229675687
F -0.3143559584 -3.2838007081 2.2051881079
F -1.6554731065 -3.0923960201 0.5046103083
Cl -1.2330068174 0.9161322985 5.0819368473
N -0.9409328270 -0.7146373358 -2.8897918621
C -2.1930397612 -1.1643622387 -3.2955421984
C -2.0744503404 -1.4233118702 -4.6268836512
N -0.7860556961 -1.1530881253 -5.0686270716
C -0.1342259872 -0.7330816506 -4.0127554025
H 2.5472805745 3.2184455440 1.3318088085
H 0.9957662070 2.4655223280 1.7407253990
H 2.2249595476 2.6903827967 2.9925673203
H 3.7310421680 1.0550101301 1.8388875641
H 2.1925284142 0.2958813861 2.2407151380
H 2.9233915382 1.4399658821 -0.5053180468
H 3.0025335777 -0.2831815919 -0.0442353609
H 1.0391250483 0.9269326210 -2.1508036767
H 1.4969592635 -0.7342918039 -1.7115668343
H -2.0382847091 1.8911389096 0.3764112240
H -1.9714299906 2.4681464376 2.7829493551
H -0.6697749208 -1.5188845909 3.6998115544
H -3.0152899910 -1.2469168880 -2.6045431522
H -2.8378265925 -1.7883627729 -5.2996126127
H 0.9049913774 -0.4358788344 -3.9935567186
