43
CONF2
C -2.9454163631 -0.2219533432 -4.2407303211
N -2.8765145622 0.5826352736 -3.0180862691
C -2.5028191155 0.2398152084 -1.7629727117
C -2.6183635214 1.3774422729 -0.9535880631
C -3.0766996891 2.3546070135 -1.8582680697
N -3.2208676316 1.8783289206 -3.0906417402
Cl -3.3963317978 4.0213553699 -1.5713275910
C -2.2416705622 1.4970984466 0.4622932647
O -1.4132447783 0.7905032641 1.0054197117
O -2.9098094514 2.4834334159 1.0702593343
C -2.5568045192 2.7095974634 2.4610542272
S -2.1011763700 -1.4286277449 -1.2565651260
O -2.7762118270 -1.7026136621 0.0120881578
O -2.3087881894 -2.3099949319 -2.4034072142
N -0.4609919036 -1.3852326037 -0.8741202286
C 0.4560399823 -0.8455732628 -1.7611084101
O 0.1913704818 -0.5872090666 -2.9280082702
N 1.7206633096 -0.6208935816 -1.2456562995
C 2.2134659955 -0.7322453806 0.0532116277
N 3.4914470756 -0.3757710667 0.1864171442
C 3.9816123991 -0.4618031665 1.4280216261
C 3.2297061025 -0.8888015245 2.5209836033
C 1.9129461823 -1.2325613495 2.2444203117
N 1.3925233609 -1.1624755878 1.0111626099
O 1.1468890385 -1.6499721756 3.2563206723
C -0.2240978521 -2.0146567306 2.9598587447
O 5.2557828207 -0.1255405568 1.6575392946
C 6.0513016140 0.3163869808 0.5313420024
H -3.7413867542 -0.9637168923 -4.1568807838
H -3.1599455417 0.4709150132 -5.0530653376
H -1.9888557821 -0.7188752396 -4.4018225823
H -2.7735558032 1.8155970159 3.0498356876
H -1.4971777282 2.9623209217 2.5400641444
H -3.1794265454 3.5438276756 2.7797637656
H -0.2030721291 -1.3583603952 0.1281403449
H 2.3783697322 -0.2576987217 -1.9239109836
H 3.6443013839 -0.9510022467 3.5179848422
H -0.7686162006 -1.1578754303 2.5545498663
H -0.2527301973 -2.8499063421 2.2545919730
H -0.6458916290 -2.3151621147 3.9181539204
H 6.1191167508 -0.4722000008 -0.2217485397
H 5.6210763014 1.2181035733 0.0890787952
H 7.0338548025 0.5287556651 0.9511574907
