24
CONF4
C -4.8860664963 -0.6284668134 0.3545428892
O -3.4471485941 -0.6666271333 0.2636843004
C -2.8647904282 0.5319963543 0.0306624705
O -3.4870583649 1.5640603790 -0.0930330084
C -1.3830635708 0.4284349209 -0.0542356378
C -0.7068154946 -0.7861887328 0.0933039219
C 0.6772494924 -0.8252100341 0.0048569003
C 1.3964083020 0.3500775443 -0.2316456551
C 0.7187331666 1.5639622792 -0.3793287990
C -0.6624850148 1.6028883851 -0.2911876788
C 2.8805184446 0.3707856929 -0.3338122332
O 3.5386470101 1.3678160819 -0.5351877263
O 3.4203615880 -0.8593174224 -0.1739445865
C 4.8595736384 -0.8994764842 -0.2596573116
H -5.1975601715 0.0219840259 1.1759522503
H -5.1927762347 -1.6578393343 0.5384745755
H -5.3160170991 -0.2560722570 -0.5788532675
H -1.2671832424 -1.6945493617 0.2767080966
H 1.2046768530 -1.7641629781 0.1190387779
H 1.2955127666 2.4635641596 -0.5620501442
H -1.2064590129 2.5340303908 -0.4028130482
H 5.1915968839 -0.5504218557 -1.2408185588
H 5.1305551900 -1.9440863270 -0.1084885285
H 5.3035892933 -0.2671813580 0.5135253034
