56
CONF1
C 3.7751572812 -0.6764229031 -2.5959639997
C 2.8585654295 -1.0012399147 -1.4222621417
C 1.3553591353 -1.0559606487 -1.7892712836
C 0.6895993656 -0.6125689350 -0.4943267094
C -0.8295603716 -0.4771860514 -0.4050117683
C -1.5983753267 0.3457229773 -1.4467191181
C -3.0474500938 -0.1253737583 -1.3780074599
C -3.4437876500 -0.5969298762 0.0052150900
C -4.3367816229 -1.5931319383 0.1342202041
C -4.7240890066 -2.1385332192 1.4378122053
O -5.5782996092 -3.0309878114 1.5350481535
C -4.0351854689 -1.5933139872 2.6054089776
C -3.1498712708 -0.5937388585 2.4805455597
C -2.7943448049 0.0677665465 1.1879971738
C -1.2131381943 -0.0187656290 1.0208490004
C -0.4088073151 1.1877535413 1.5409289989
C 1.1076319568 0.9520388444 1.3937040602
C 1.5221826997 0.5996524886 -0.0431763464
C 2.9854293244 0.0253498185 -0.2442704029
C 3.5174397290 -0.5878579993 1.0168118366
O 3.2371675346 -1.7143926770 1.4092851726
C 4.4457289877 0.2669714785 1.8476498206
O 4.7613904031 -0.3333303870 3.0865243905
C 1.4298967443 1.8151144266 -0.9822231193
O -0.8043790834 2.3984166837 0.8762216371
C -3.4006368709 1.5021774764 1.2864841364
F -3.9165926570 0.9381943764 -1.7710799203
H 3.5474534585 0.3129823464 -3.0076303816
H 3.6490800743 -1.4130935914 -3.3968312118
H 4.8271358342 -0.6838450704 -2.2912850611
H 3.1334954760 -1.9838400895 -1.0239155728
H 1.1304471897 -0.3683804132 -2.6125364282
H 1.0513019079 -2.0600715029 -2.1024411290
H 0.9267554980 -1.3950604994 0.2448875643
H -1.1997953976 -1.5098617863 -0.5065576205
H -1.2088852050 0.2013869531 -2.4583248553
H -1.5596530166 1.4110077326 -1.2104913599
H -3.2369036813 -0.9355655099 -2.0900473844
H -4.7951225213 -2.0494240233 -0.7404685223
H -4.2738748048 -2.0277814502 3.5719346309
H -2.6546995438 -0.1865239332 3.3611889259
H -0.8960954176 -0.8358130139 1.6832022446
H -0.6261419846 1.2865136450 2.6178498453
H 1.3727814988 0.1304655064 2.0721556659
H 1.6322067366 1.8475361057 1.7527296571
H 3.6506015208 0.8554428920 -0.5091995094
H 5.3521112813 0.4336180824 1.2394923593
H 3.9850155931 1.2542978510 1.9998740809
H 4.3787784407 -1.2272225012 3.0431241033
H 1.8556743123 1.5883195064 -1.9627231981
H 0.4052558985 2.1549981168 -1.1173245545
H 2.0067653459 2.6436094748 -0.5556057029
H -0.1890443805 3.0890110352 1.1537797188
H -3.1990753389 2.0867172072 0.3911061580
H -4.4829787998 1.4036603191 1.4145804504
H -2.9868419081 2.0274927691 2.1489817507
