74
CONF62
C -0.6367134446 -1.8088884670 -1.0522490156
C -0.0961960612 -3.1033988023 -1.6463682373
O -0.9567499428 -4.1395925593 -1.0627044317
C -1.5421113955 -3.6887476246 0.0801170828
O -2.2375477810 -4.4099989172 0.7555793045
C -1.1055783187 -2.2655026203 0.3213639004
C -2.0622163192 -1.2570443612 0.9623002983
C -3.4519743284 -1.2604376540 0.3336395917
C -4.4274149213 -2.1146126525 0.8507589554
C -5.6977218916 -2.1703201242 0.2740676371
O -6.7151867665 -2.9706361625 0.7033275962
C -6.4385582292 -3.8407178888 1.8076625271
C -5.9996985931 -1.3600507610 -0.8267374723
O -7.2491260553 -1.4200285016 -1.3758190658
C -5.0207284430 -0.4974380053 -1.3310447383
O -5.4386657422 0.2513320309 -2.3986627168
C -4.4929673418 1.1602808055 -2.9753390761
C -3.7534766130 -0.4401540841 -0.7558411502
C -1.4211339398 0.1235446908 0.8725984917
C -1.9868524308 1.1320655365 1.6791110727
C -1.5148777853 2.4133125569 1.5366995569
C -0.5244806115 2.7307306180 0.6135452666
O -0.2546055396 4.0727473380 0.6557083153
C -1.1064229871 4.6212481171 1.6854655209
O -1.9131937715 3.5388347189 2.2029454797
C 0.0419626061 1.7731889363 -0.1883440253
C -0.4037013001 0.4389920360 -0.0421870843
C 0.2818689194 -0.6162674363 -0.8897123751
O 1.4934492027 -1.1424583090 -0.2624308909
C 2.4367179024 -0.2217136214 0.1685962440
O 2.9998512849 0.4364615254 -0.9758482579
C 3.9589842467 1.4004880040 -0.5462373591
C 4.4707552820 2.1877333465 -1.7405656458
O 5.4933985530 3.0819729519 -1.2820886733
C 6.5646123699 2.3828711869 -0.6566921242
C 7.5929465922 3.3898356790 -0.2167217140
O 6.1109133497 1.6729721036 0.4945419764
C 5.1416506518 0.6919211541 0.1164544002
C 4.6665939844 -0.0752375362 1.3302622415
O 5.7567200608 -0.8217096033 1.8649501679
C 3.5236815556 -1.0009542095 0.9117923568
O 3.0109641654 -1.5812191784 2.1100733540
H -1.5057093845 -1.4876385589 -1.6389404962
H -0.1949679097 -3.1774244578 -2.7299893360
H 0.9328564399 -3.3100146419 -1.3406382631
H -0.2198334256 -2.3515038306 0.9716552927
H -2.1805896860 -1.5149982868 2.0210575541
H -4.1827684286 -2.7431360096 1.6967176745
H -7.3587667956 -4.4000038945 1.9787723226
H -5.6235957075 -4.5337182232 1.5674079072
H -6.1831143357 -3.2675368983 2.7068089059
H -7.2741812088 -0.7941065776 -2.1148874946
H -3.6135062049 0.6223309315 -3.3480518252
H -5.0113659833 1.6407737362 -3.8052392601
H -4.1830082558 1.9159432572 -2.2441603896
H -3.0112557021 0.2538326376 -1.1301773131
H -2.7885561307 0.8986964818 2.3723686848
H -0.4852620665 5.0261252105 2.4918663225
H -1.7616183398 5.3808231493 1.2470647281
H 0.8134701848 2.0215335123 -0.9104137614
H 0.5641670506 -0.1861415251 -1.8578072860
H 1.9923125972 0.5377669931 0.8359678915
H 3.5035895088 2.0963760461 0.1784165879
H 3.6828344226 2.8005320384 -2.1856205681
H 4.8703355013 1.4980623459 -2.5011617535
H 6.9745503292 1.6509231689 -1.3770897790
H 8.4282327612 2.8774434726 0.2655483414
H 7.1443164240 4.0930721625 0.4903617448
H 7.9660306522 3.9397116816 -1.0835492957
H 5.5896752500 -0.0103941890 -0.6082792027
H 4.2864852765 0.6396882649 2.0793663657
H 5.4076994157 -1.3433200079 2.6002103802
H 3.9171531413 -1.7748765037 0.2347278410
H 2.4072197330 -2.2922246199 1.8591929915
