41
CONF28
C 2.8415866152 3.4687425833 2.0229006937
C 2.7092934894 2.1755233524 1.2796875629
C 2.7206826296 0.9405296560 1.9193576708
C 2.5951446798 -0.2521792503 1.2214854600
C 2.4644500890 -0.2780738251 -0.1620875569
C 2.4446916774 0.9552223529 -0.8055749165
C 2.5723083464 2.1431715365 -0.1046803471
F 2.5527537055 3.3015652720 -0.7913380922
F 2.2849850605 1.0039159123 -2.1405894988
C 2.2606592233 -1.5522672350 -0.9148304342
O 0.8160777877 -1.7254761900 -0.9967688302
C 0.3653030142 -2.7483636091 -1.7477007985
O 1.0977422049 -3.4970376684 -2.3680403282
C -1.1084730897 -2.8598350214 -1.7526598191
C -2.0710146286 -1.8153809719 -1.1493240271
C -1.9225386416 -3.1711878662 -0.5020515898
C -3.0676903653 -4.1406818593 -0.6950083666
C -1.2308975490 -3.3101526071 0.8350531307
C -1.5963366433 -0.5953074284 -0.4960952846
C -1.8297434524 0.6489965079 -0.9150178179
C -1.3463228505 1.8694317823 -0.1920247617
F -0.5322004976 2.6298053033 -0.9698155013
F -0.6499383087 1.5496682571 0.9181932839
F -2.3681606473 2.6760033712 0.1918207584
Cl -2.7049111193 1.0289706838 -2.3818858166
F 2.5926952093 -1.4066124760 1.9127662759
F 2.8499864359 0.8856850859 3.2592318666
H 3.8705615068 3.8396725755 1.9609080875
H 2.1863907323 4.2266818529 1.5881758508
H 2.5877427373 3.3381311432 3.0750998771
H 2.6972112943 -2.4055319105 -0.3914646686
H 2.6734251544 -1.4929916621 -1.9238841273
H -2.9539349245 -1.6821111203 -1.7685014814
H -2.7046308324 -5.1723237664 -0.6384133820
H -3.8127960040 -3.9969516961 0.0950568457
H -3.5568865459 -3.9967424024 -1.6621942320
H -1.9352477268 -3.0707618447 1.6388988322
H -0.9061874209 -4.3472154218 0.9681590834
H -0.3547899828 -2.6689607615 0.9422197723
H -1.0262750166 -0.6865987080 0.4209800342
H -1.4651267003 -3.3365818389 -2.6602401241
