52
CONF4
C 5.1214530438 1.3209835131 0.9603748144
N 3.9126101861 0.7766418446 1.5757720747
C 3.6300969907 -0.5632806593 1.0529937287
C 2.3644597844 -1.1305508368 1.6779858104
N 1.2314648268 -0.2484794900 1.3992153276
C 1.5035056517 1.0821659101 1.9415619497
C 2.7662388933 1.6512948616 1.3143649372
C -0.0392893494 -0.7849601729 1.8844200927
C -0.5264699454 -1.9862441873 1.0686076283
C -0.4004802679 -1.7524839557 -0.4392043320
N -1.0046532971 -0.4780364002 -0.8476550174
C -0.2655789869 0.4266979225 -1.6285147893
C 0.7555483272 -0.0021431868 -2.4874471564
C 1.5186878507 0.9181243524 -3.2006726729
C 1.2516165976 2.2809391039 -3.1137398685
C 0.2024442925 2.7190118677 -2.3094378649
C -0.5337823457 1.8033763269 -1.5634155177
S -1.7780210442 2.3960095279 -0.4363544372
C -2.8968898116 1.0207793200 -0.5102255850
C -2.3741411083 -0.2800700732 -0.6577165278
C -3.2649240782 -1.3551526082 -0.5883113079
C -4.6229743439 -1.1323604029 -0.3603625694
C -5.1341353567 0.1537615606 -0.2326705586
C -4.2585286824 1.2320373053 -0.3283627409
C -5.5133353254 -2.3310601100 -0.2583553449
F -6.8109738960 -2.0092303342 -0.0631987486
F -5.4641684304 -3.1037207976 -1.3790302429
F -5.1510929763 -3.1461379318 0.7720520653
H 5.3304154022 2.3149141085 1.3704055061
H 5.0277787589 1.4136579291 -0.1391269899
H 5.9745239997 0.6690491562 1.1771311003
H 4.4790848548 -1.2188335476 1.2808174694
H 3.5061505811 -0.5409629347 -0.0503363758
H 2.5146686575 -1.2610208222 2.7691531622
H 2.1737940071 -2.1202859982 1.2486918188
H 0.6575707965 1.7392112653 1.7051487922
H 1.6181053355 1.0594086635 3.0444914378
H 2.6005324509 1.7752919332 0.2226561986
H 2.9729403020 2.6424644507 1.7357059069
H 0.0113817205 -1.0674986938 2.9543383802
H -0.7819537668 0.0185462918 1.8024618131
H 0.0467284382 -2.8899230052 1.3049993085
H -1.5619662443 -2.1964136745 1.3573430102
H -0.8088514260 -2.6005972917 -1.0049863263
H 0.6598282064 -1.6866452850 -0.6787028824
H 0.9593593061 -1.0604114078 -2.6011853169
H 2.3176925327 0.5575614515 -3.8406073779
H 1.8420992303 2.9989085243 -3.6726923269
H -0.0322650916 3.7767138882 -2.2368204285
H -2.9031977159 -2.3699782509 -0.7033794529
H -6.1897001821 0.3234043412 -0.0604530035
H -4.6334063316 2.2455268396 -0.2277264640
