21
CONF50
C 1.1608227012 -1.1473654185 0.0464160189
C 0.1205603210 -0.0224597028 0.1775359650
C 0.7889998460 1.3538504672 0.0309315161
O 1.4125035850 1.5696711141 -1.2534046074
C -0.9921603912 -0.1683089851 -0.8596162585
O -1.7857005776 -1.3178302682 -0.5219960839
C -0.4592087823 -0.1115794833 1.6059269465
O -1.6048037500 0.7212761021 1.8100591212
O 1.7772298450 -1.2200393411 -1.2442706893
H 0.6768723642 -2.1155193335 0.2145252151
H 1.9245448089 -1.0112357129 0.8302168181
H 0.0579281320 2.1469767281 0.2335085655
H 1.5973728697 1.4330804700 0.7661465149
H 0.7268354912 1.8046662834 -1.8912477075
H -1.6147600196 0.7393691354 -0.8591742007
H -0.5564745912 -0.2849494301 -1.8603848007
H -2.4385961679 -1.4376599877 -1.2218907656
H -0.6993899006 -1.1570789251 1.8376134015
H 0.2966843561 0.2263636714 2.3239183332
H -2.3430789470 0.3019746957 1.3487756824
H 1.9538191140 -0.3032017668 -1.5135889849
