53
CONF153
C -3.7698898529 -2.9480250751 -2.0501248792
O -3.3491039214 -1.8836930405 -1.1506985761
C -3.4977942182 -0.6413724355 -1.6137138592
O -3.9136973538 -0.3445387833 -2.7092773364
C -3.1249112765 0.3893075747 -0.5298256790
C -4.2929844082 0.4770701690 0.4845058829
C -3.8062336040 -0.3549369081 1.6457501152
C -2.4287912275 -0.6069612018 1.5526128855
C -1.9448209724 -0.0212832802 0.3197048771
N -0.7273257437 0.2953373876 0.0558762200
N -0.5304513617 0.9951795724 -1.1000659297
C -1.6498002731 1.5794821454 -1.8945758213
O -2.8280441071 1.6486356343 -1.1206171114
C 0.7304908170 1.1254251467 -1.6178290475
O 0.9714241374 1.8745592168 -2.5532945536
N 1.7450520854 0.3617116009 -0.9709193971
C 2.9705969071 1.0217344872 -0.6647979447
C 2.9314589578 2.2732724636 -0.0515057820
C 4.1151814332 2.9456452149 0.2266549769
C 5.3170943341 2.3355801507 -0.0952399636
C 5.3766921443 1.0912763113 -0.7042569191
C 4.1896042848 0.4333792422 -0.9993000653
O 6.5210294826 3.0417753486 0.1318756440
C 7.1199575858 2.8305859760 1.3245692952
F 7.4662587745 1.5371047153 1.5190990803
F 6.3418254122 3.1827030943 2.3743162091
F 8.2325957263 3.5727419120 1.3597686932
C 1.5921491477 -0.9964138994 -0.6788001545
O 2.2489598640 -1.5932672181 0.1473573880
O 0.6654008616 -1.5473969472 -1.4792228974
C 0.2624676057 -2.8900766299 -1.1127558116
C -1.7520789742 -1.3031614728 2.5515145732
C -2.4720463395 -1.7657383281 3.6459943631
C -3.8437513209 -1.5155017997 3.7158858333
C -4.5348193282 -0.8105689521 2.7324479572
Cl -4.7367605175 -2.1157101553 5.1039708635
H -3.5693546018 -3.8718306303 -1.5104898929
H -4.8350477723 -2.8466284214 -2.2683932736
H -3.1897257500 -2.9016060670 -2.9739030268
H -4.4058206100 1.5267445519 0.7802832381
H -5.2462738551 0.1360081811 0.0725788426
H -1.3836062967 2.6023449113 -2.1629442719
H -1.7931299957 0.9736937921 -2.8000616761
H 1.9787389929 2.7243453141 0.2069164032
H 4.1061578475 3.9237818722 0.6938759733
H 6.3351637172 0.6549399093 -0.9614755619
H 4.2128489286 -0.5310498457 -1.4938411522
H -0.5142344605 -3.1581961444 -1.8275779979
H -0.1348296497 -2.8934545738 -0.0942662845
H 1.1111938955 -3.5727593080 -1.1895796622
H -0.6865308822 -1.4934438445 2.4741972949
H -1.9812739480 -2.3219142500 4.4361769797
H -5.5992117013 -0.6248364827 2.8234206376
