48
CONF12
C -2.9694461975 0.4081795092 -1.7329721334
C -3.8544265762 -0.2828720683 -0.6864367514
C -3.9142381042 -1.7875545828 -0.9876376393
C -5.2709485131 0.3062266529 -0.7763514374
C -3.3325442847 -0.0238228669 0.7485627513
C -1.8226164457 -0.3395631839 0.9212251005
N -1.4782515191 -0.6046944147 2.3222435316
C -1.3510194304 0.2776281318 3.3356465434
N -1.0659947498 -0.3648273578 4.4621021788
C -1.0377428142 -1.6693095454 4.0669327936
N -1.2809632434 -1.8654694031 2.7774550470
O -1.1228148151 0.8065851568 0.4902867730
C 0.2144139715 0.6948359549 0.1741035778
C 0.9856354363 -0.4492791310 0.3711489062
C 2.3292359364 -0.4310992167 0.0052677075
C 2.9269769534 0.7051891240 -0.5501067799
C 2.1252857683 1.8429539343 -0.7325648635
C 0.7867031842 1.8428204857 -0.3754719593
C 4.3546604214 0.7095018169 -0.9304464318
C 4.7928462280 1.3991851153 -2.0705512164
C 6.1370837734 1.4030197568 -2.4283852657
C 7.0723770105 0.7165814929 -1.6562549681
C 6.6500533328 0.0267957368 -0.5214183270
C 5.3065025950 0.0240531238 -0.1611770147
O -4.1053881342 -0.8208309842 1.6412445141
H -1.9701747776 -0.0353540857 -1.7866294487
H -3.4360484506 0.2966771617 -2.7172561688
H -2.8602894091 1.4770097770 -1.5230998125
H -2.9272599232 -2.2597993035 -0.9356438964
H -4.5824858329 -2.3068193215 -0.2963854967
H -4.2930590366 -1.9337263683 -2.0045988494
H -5.6801644791 0.1350507629 -1.7773449341
H -5.2541038342 1.3866801442 -0.5945879639
H -5.9392478143 -0.1592369367 -0.0469493450
H -3.4533589470 1.0453773737 0.9815641999
H -1.5359707750 -1.2367915532 0.3622953543
H -1.4614206633 1.3461811194 3.2051914460
H -0.8285061587 -2.4926768559 4.7383034231
H 0.5701853906 -1.3536265125 0.7992178212
H 2.9147425793 -1.3346921728 0.1432777421
H 2.5598455643 2.7496320050 -1.1416996092
H 0.1721285772 2.7269093279 -0.5107840535
H 4.0710483190 1.9178362050 -2.6942875576
H 6.4538528287 1.9368094901 -3.3193600054
H 8.1210585844 0.7194083965 -1.9364036362
H 7.3715477682 -0.5037975740 0.0925917935
H 4.9940730736 -0.4966147229 0.7389555997
H -4.0817711659 -0.4165726815 2.5171894595
