59
CONF188
C 6.0886194490 -2.9243685322 1.7804589065
C 6.8951753583 -2.9469188156 0.4501214248
C 5.8643761067 -2.6675532067 -0.6597933818
C 4.7504962746 -1.8653289059 0.0299230650
C 4.6343686527 -2.5983890741 1.3817415677
C 3.4542089072 -1.8538603791 -0.7681787714
C 2.3656322037 -1.0108048287 -0.1578047272
O 1.1801925010 -1.2433641329 -0.3489991144
N 2.7564112412 0.0758786933 0.6314706113
C 4.0860743186 0.4564166989 0.8340916209
O 4.3481650441 1.4661490679 1.4728808797
C 5.1622284131 -0.4052510289 0.2257093706
C 1.6989194032 0.9220912190 1.2165906787
C 1.2988742361 2.0518270787 0.2716219364
C 0.2478226746 2.9789514204 0.8863413944
C -1.0219942667 2.2606399931 1.3550238712
N -1.5663549108 1.3346342158 0.3577047825
C -2.0974568082 2.0417365069 -0.8112542634
C -2.6113324623 1.0456904849 -1.8473071248
N -3.6321653696 0.1828550441 -1.2534801031
C -3.1237845106 -0.5186917933 -0.0745801864
C -2.6081473333 0.4895233618 0.9485198637
C -4.9662344023 0.4175897811 -1.4322899856
N -5.3240096074 1.2906956349 -2.4065739646
C -6.6302452368 1.4600150549 -2.5994228131
C -7.6031817738 0.7994504799 -1.8580069661
C -7.1289836746 -0.0665805662 -0.8792784705
N -5.8337664105 -0.2695274733 -0.6483593686
H 6.4841158391 -2.1586861923 2.4547483412
H 6.1474104411 -3.8770807277 2.3134871171
H 7.6669431189 -2.1710878173 0.4590684814
H 7.4048339148 -3.9010436071 0.2917570711
H 5.4342679396 -3.6093179988 -1.0230011599
H 6.2862849073 -2.1392818806 -1.5212845674
H 4.0660145140 -3.5226753754 1.2232154567
H 4.1062340138 -2.0141788641 2.1434084895
H 3.6408279950 -1.4476920831 -1.7735730519
H 3.0459418267 -2.8605967212 -0.8964043105
H 6.0456710592 -0.2979207114 0.8606079581
H 5.4106756176 0.0415766190 -0.7480925275
H 2.0814967032 1.3216426428 2.1586025822
H 0.8458191971 0.2730441171 1.4190047446
H 2.1896385784 2.6364671918 0.0149802454
H 0.9124772280 1.6119825512 -0.6546248620
H -0.0009196730 3.7618250369 0.1612451298
H 0.6736005676 3.4935070294 1.7571316407
H -1.7744689340 3.0163318336 1.6561349226
H -0.7956218355 1.6723684046 2.2530407894
H -2.9211267839 2.7288977023 -0.5271797515
H -1.3025842698 2.6414892970 -1.2669112907
H -1.7815210860 0.4087839477 -2.1809487967
H -3.0233670880 1.5682844518 -2.7091294644
H -3.9104466549 -1.1345679511 0.3584010874
H -2.2977798306 -1.1667158858 -0.3955378266
H -3.4622563220 1.0925803302 1.3201579428
H -2.1815785430 -0.0504345324 1.8024018031
H -6.9111036619 2.1621614233 -3.3841267982
H -8.6612047570 0.9537926494 -2.0278039600
H -7.8207706488 -0.6224330522 -0.2467131309
