45
CONF151
C 5.9934588467 -3.4342252863 0.8689084221
C 4.8907179824 -3.0166388501 1.5108470511
C 4.0321072453 -1.9144114659 1.1066473594
C 2.9319992288 -1.5765447812 1.8410929480
N 2.0133439933 -0.6454301511 1.3808716442
C 1.9801560002 -0.0214860349 0.0605153713
C 1.1131178565 1.1225857952 0.6754157265
C 1.2066659854 0.3097807720 1.9920330274
O 0.8332932597 0.4532857234 3.1307393403
N -0.1701656766 1.4265611017 0.1311985395
C -1.1744514198 0.5225384519 0.1706488765
O -1.0211788062 -0.6008545130 0.6515105278
C -2.5160645385 0.9693704959 -0.4031158715
N -3.2987767225 -0.0538159075 -0.5430769689
O -4.5498550508 0.2616256840 -1.0291567654
C -5.2602505629 -0.9452957052 -1.3070346835
C -4.8141145619 -1.6687330439 -2.5613467126
O -5.2349245421 -2.7690051059 -2.8469047398
O -3.9588835022 -0.9629265817 -3.3118846089
C -2.8390553347 2.3669811429 -0.7209055624
C -4.0972867309 2.9127144288 -0.7749593121
S -4.0101238763 4.6076877063 -1.1354807494
C -2.2475220374 4.4667255712 -1.2098632027
N -1.8063925179 3.2599518599 -0.9747532315
N -1.4607216941 5.5482463775 -1.4335518030
S 3.6702179533 0.4387549799 -0.4535350465
C 4.3446844223 -1.2549352287 -0.2140868792
C 2.5887829634 -2.2070400888 3.1519072797
O 3.3721242278 -2.3904609503 4.0601136565
O 1.2916599987 -2.5587494701 3.1953756287
H 6.3816208809 -2.9631761118 -0.0279537952
H 6.5443101598 -4.2884677017 1.2477053631
H 4.5877758612 -3.5577552103 2.4013972068
H 1.4839387092 -0.6391491928 -0.6935685534
H 1.6875312868 2.0494094858 0.7724731896
H -0.3608076086 2.3394688049 -0.2891559180
H -5.1982773443 -1.6405709925 -0.4638501405
H -6.3049415481 -0.6485419704 -1.4472964789
H -3.7389577462 -1.4889623240 -4.1011670162
H -5.0539972795 2.4468097721 -0.6068925862
H -0.5056389174 5.3512596156 -1.6978053599
H -1.8723479191 6.3499200011 -1.8862284711
H 4.0158308346 -1.8967590006 -1.0403573040
H 5.4266219656 -1.1322601712 -0.3112374052
H 1.1047777842 -2.9274813426 4.0766286795
