47
CONF50
C 3.4332362162 2.0526931269 3.9398276562
C 3.2552989814 0.5353062141 4.0826588486
C 4.5574601328 -0.1249249902 4.5548234086
C 2.7565581795 -0.0845923877 2.7935203768
C 1.5222077133 -0.7363582275 2.7446285258
C 1.0500789191 -1.3103763212 1.5659856941
C 1.8322158245 -1.2219562995 0.4265393846
C 3.0663894173 -0.5882434254 0.4343157382
C 3.5195368247 -0.0233260756 1.6212720860
O 1.3941430782 -1.8477218275 -0.7602564644
P 0.4568930395 -1.0914351729 -1.8118393792
O 0.0634581738 -1.9706192802 -2.9295170029
O 1.3403185526 0.2086990178 -2.1444689743
C 0.7503437725 1.3003146722 -2.8093985716
C 0.4098247017 1.1956354610 -4.1506533179
C -0.1397959536 2.3088646764 -4.7837275449
C -0.3324562747 3.4962397936 -4.0813423357
C 0.0250800334 3.5759175814 -2.7364954398
C 0.5692795208 2.4709768828 -2.0874330367
O -0.7514865152 -0.4304311203 -0.9770543627
C -2.0638609612 -0.9203937639 -1.0373135119
C -3.0423620519 -0.0504839133 -1.4956172057
C -4.3653768435 -0.4842871949 -1.5149636731
C -4.6908977613 -1.7694199017 -1.0856258063
C -3.6893828797 -2.6251046862 -0.6318496094
C -2.3620736779 -2.2036463162 -0.6004516705
H 3.7335408468 2.4920807329 4.8967716057
H 2.5027396670 2.5298942583 3.6167491304
H 4.2098797631 2.2856033515 3.2032626816
H 4.8682728738 0.2945453297 5.5172945479
H 4.4312795780 -1.2056433331 4.6730001753
H 5.3651263546 0.0477992039 3.8352086681
H 0.9150319740 -0.8010204376 3.6433264393
H 0.0922760338 -1.8185245272 1.5321898297
H 3.6573682976 -0.5425231981 -0.4740082698
H 4.4858254088 0.4721636692 1.6276806500
H 0.5736861110 0.2652649085 -4.6831801649
H -0.4126957552 2.2440481727 -5.8320602731
H -0.7586877186 4.3595123157 -4.5816120206
H -0.1221104234 4.4994651336 -2.1859671486
H 0.8487257360 2.5056437017 -1.0397819846
H -5.1413613529 0.1857040382 -1.8708724323
H -5.7228385182 -2.1037655663 -1.1051619153
H -3.9375075019 -3.6269133901 -0.2964225537
H -1.5733028076 -2.8588729346 -0.2449408521
H 2.4876287129 0.3539915717 4.8451330813
H -2.7631606173 0.9435978382 -1.8294797373
