38
CONF481
F -1.8579896964 1.4485781076 0.5887965044
C -1.6706677295 0.1558767319 0.2406904062
F -1.7162674408 -0.6027435802 1.3554138825
C -0.2788145328 -0.0136668964 -0.4429458999
F 0.0413049553 -1.3275118934 -0.4395774594
F -0.3658910806 0.4239148117 -1.7168970164
C 0.8677038279 0.7803381085 0.2780777943
F 0.7570219969 2.0891174181 -0.0412342917
F 0.7194507730 0.6375322088 1.6163349699
C 2.3046582386 0.2872006091 -0.1142172950
F 2.5628463221 -0.8653678760 0.5453642113
F 2.3428565581 0.0516534508 -1.4445470341
C 3.4277640120 1.3229541060 0.2322295319
F 3.4104676933 2.3122312197 -0.6855141439
F 3.1951699232 1.8484155483 1.4581065746
C 4.8702011139 0.7192157492 0.2480863876
F 5.0409872714 -0.0946566915 1.2953154878
F 5.1046476591 0.0378837516 -0.8818423266
F 5.7539053996 1.7224565288 0.3405782088
S -3.1238827654 -0.3624762730 -0.9132058068
O -2.7526905625 -1.6866283217 -1.4147694801
O -3.3293181555 0.8055375665 -1.7676646944
N -4.3941725807 -0.5261579552 0.1172525258
C -4.8835642747 -1.8568780364 0.5091359037
C -4.2634223491 -2.3993133699 1.7819669775
O -4.5487106252 -1.4826231061 2.8388791459
C -5.1719730208 0.6724944029 0.5026982171
C -6.3806001298 0.9032926373 -0.3956876113
H -5.9661411139 -1.7556733786 0.6474360159
H -4.7166616087 -2.5683030766 -0.3042217466
H -4.7085276502 -3.3879621206 1.9804728497
H -3.1826087200 -2.5314227499 1.6435570721
H -5.4621752397 0.5275133623 1.5474870299
H -4.5088870727 1.5406904894 0.4684737770
H -6.9393904567 1.7758494570 -0.0433117665
H -6.0620521750 1.0855927572 -1.4247409339
H -7.0603271857 0.0457444768 -0.3861574410
H -4.0146371484 -1.7197151669 3.6033223310
