33
CONF51
C 4.6287891102 0.0885537730 -1.8216893769
C 6.1192885178 0.2930337894 -1.5406811073
O 6.6891310495 -0.6890218923 -0.6880156006
C 3.7738064725 0.0678652005 -0.5668145813
C 2.2570909379 0.2488733442 -0.8875937983
C 1.2796870006 -0.0561034696 0.2985467682
C -0.1538802749 0.5504806985 0.0907512558
C -1.2393695836 -0.1009726936 1.0203676456
C -2.5385632179 0.7704700135 1.1502053477
C -3.7708898970 -0.0359582961 1.6848336608
C -4.9365209122 0.8626746241 2.2143393941
F -4.6030920411 1.4568589769 3.3642697353
F -5.2500495361 1.8002171693 1.3087840402
F -6.0104291534 0.0907607500 2.4291393575
F -3.3793314914 -0.8366526700 2.7030307666
F -4.2647235713 -0.7965370395 0.6851810921
F -2.2919941294 1.7942728017 1.9981387941
F -2.8571408283 1.2711615197 -0.0652949183
F -0.7155131337 -0.2711243518 2.2543766604
F -1.5798364829 -1.3063432042 0.5110678639
F -0.1044139194 1.8768534560 0.3506394205
F -0.5268737158 0.3631791156 -1.1956386287
F 1.7934447364 0.4497269038 1.4397448403
F 1.1609482779 -1.3990206424 0.4225007759
F 2.0639341977 1.5296600760 -1.3002070065
F 1.9433699621 -0.5818930135 -1.9165294352
F 3.9068193886 -1.1172104217 0.1016803290
F 4.1430213371 1.0705927458 0.2804176203
H 4.2794145165 0.9059914063 -2.4634381024
H 4.4537988937 -0.8469261494 -2.3627793329
H 6.2755396686 1.2495912364 -1.0353636828
H 6.6398133677 0.3385958684 -2.5098357041
H 6.5718458396 -1.5563863341 -1.0916189777
