31
CONF5
C -3.5155305402 -1.2451436016 -1.0776328589
C -3.1757338435 0.1968041099 -0.7032987772
C -3.7369991564 0.5748738108 0.6754421030
O -3.7505391092 1.0388807540 -1.7020070839
C -1.6555854302 0.4665901218 -0.7044399227
O -1.1967627870 1.4346602160 -1.3025818655
N -0.9013274313 -0.4114017361 0.0265015591
C 0.4731314851 -0.4035398462 0.2530080162
C 1.3126737924 0.6406706512 -0.1630022457
C 2.6799311966 0.5847811822 0.0716236491
C 3.2073822973 -0.5227408542 0.7497853538
C 2.3733677172 -1.5369902323 1.2097315471
C 1.0188468969 -1.4879945084 0.9530038008
N 4.6407890786 -0.7078343577 0.9752164507
O 4.9836510146 -1.2652755924 2.0142731964
O 5.4149307324 -0.3287815990 0.1019989684
C 3.5021637113 1.7838279913 -0.3553751313
F 4.1537222011 1.5812501633 -1.5224515684
F 4.4151443496 2.1362546140 0.5777614907
F 2.7149753360 2.8687807708 -0.5447707865
H -3.0318596926 -1.5253928547 -2.0174343991
H -3.2259408719 -1.9549678769 -0.2979146406
H -4.5995004691 -1.3177059790 -1.2034867423
H -3.4949574574 1.6157725034 0.9105278610
H -3.3402624431 -0.0687652399 1.4661608275
H -4.8246896299 0.4622732589 0.6483221890
H -3.1101438448 1.7533482903 -1.8575289309
H -1.3981424148 -1.1867311523 0.4443179539
H 0.8871136705 1.5005136983 -0.6548571721
H 2.8017451216 -2.3798677128 1.7380327495
H 0.3784070180 -2.2961488920 1.2910746999
