26
CONF1
C -1.2888810115 0.6901782042 -1.2383891037
C -1.0310975547 -0.0329850546 0.0754843869
C -0.2511246443 -1.3879071126 0.0570669780
C 0.8552225295 -1.3651732192 -0.9997568126
C 1.8581980112 -0.2117895786 -0.7335686158
C 1.2853599974 0.9083508650 0.1151818978
C 1.7573875836 2.1578190888 0.0850876772
C 0.1463848263 0.4862494747 0.9904744095
C 0.3534694855 -0.9934555485 1.4312027023
C -2.3430987317 -0.1347522709 0.8518388224
H -1.7177337845 1.6801644169 -1.0425208645
H -2.0088800029 0.1285093379 -1.8456603174
H -0.3832972543 0.8364674096 -1.8313915856
H -0.8523828124 -2.3024323483 -0.0061742128
H 1.3925518873 -2.3200775521 -0.9861819883
H 0.4088884966 -1.2700316810 -1.9957110424
H 2.7154280324 -0.6213641675 -0.1848170716
H 2.2623014458 0.1881051240 -1.6686826117
H 2.5602257939 2.4437999939 -0.5899979729
H 1.3523988517 2.9253526219 0.7393657151
H -0.1024741410 1.2407276069 1.7444976909
H -0.2852860714 -1.2642544468 2.2721062342
H 1.3779984639 -1.3145489267 1.6415289862
H -2.7452617930 0.8657381103 1.0486259467
H -2.2317931883 -0.6479892117 1.8100590134
H -3.0845043152 -0.6847016357 0.2603318388
