63
CONF531
C 8.4401285766 -0.0564936923 -2.9610180010
C 7.1054431746 0.4747718811 -3.4762333657
N 6.0509060878 0.3851756226 -2.4598215321
C 6.0560182377 1.3431404492 -1.3528566877
C 4.6413224604 1.6146414845 -0.9054511303
N 4.0006743701 0.3493280144 -0.4925400804
C 4.2793083049 -0.7968458190 -1.1953529935
O 3.8077644184 -1.9010006177 -0.9475146711
C 5.2420770147 -0.6878076311 -2.4115713126
O 5.2176690491 -1.5959950188 -3.2401214428
C 2.9815427898 0.4704592301 0.5101422505
O 2.6425219388 1.5846352729 0.8967661665
N 2.4664178378 -0.6771899563 0.9930811805
C 1.3389447071 -0.6094451461 1.9024933969
C 0.8899965819 -2.0000508008 2.3016565078
C 0.7762319633 -2.3350777012 3.6511051504
C 0.3310853017 -3.6012867258 4.0232771481
C -0.0009809303 -4.5392061541 3.0489652180
C 0.1099592253 -4.2068235296 1.6997443368
C 0.5488231294 -2.9406877852 1.3253288391
C 0.1498514299 0.1102066960 1.2303978806
O -0.0604812968 0.0539775774 0.0232850072
N -0.6722008597 0.7609842221 2.0886703817
C -1.8881277717 1.3651340559 1.6466310426
C -3.0580345675 0.4907591783 1.0675391476
N -2.9610420588 1.2728810688 -0.1722066478
C -1.9357948245 2.0679466227 0.2803981263
O -1.3770065280 3.0260804577 -0.2356820917
C -4.2178632315 1.5430291137 -0.8521735984
C -5.2321762908 1.9334333392 0.2805182744
S -4.7825783108 0.7351935800 1.6648933327
C -6.6777077034 1.6708091820 -0.1225333275
C -5.0408859822 3.3773688307 0.7384355229
C -4.2010388314 2.5699811029 -1.9871825206
O -3.1797794785 3.4084250966 -2.1293922533
O -5.1474808535 2.6142059651 -2.7464117608
H 8.7839835588 0.5123455085 -2.0921195863
H 9.1962792564 0.0303379038 -3.7465033417
H 8.3520801580 -1.1097226019 -2.6783531003
H 7.1926344418 1.5272295030 -3.7654787818
H 6.7728901042 -0.0941835347 -4.3467353885
H 6.4973193734 2.2773156677 -1.7099510117
H 6.6647509176 0.9722752726 -0.5170329000
H 4.6486840744 2.2828413862 -0.0447869524
H 4.0581010352 2.0820132810 -1.7078027381
H 2.7175692587 -1.5486063427 0.5367520125
H 1.6248713706 -0.0504309909 2.8005311558
H 1.0396928962 -1.6044541902 4.4104716527
H 0.2488442747 -3.8552150200 5.0754181829
H -0.3449425120 -5.5269782532 3.3390951194
H -0.1504529853 -4.9334561582 0.9366011527
H 0.6186423215 -2.6818987223 0.2724829933
H -2.2600471656 2.0471660416 2.4165207546
H -2.8317043353 -0.5732272258 0.9598438557
H -4.5613020292 0.6073166935 -1.3075279931
H -6.9712452057 2.3763051763 -0.9049168542
H -7.3387031329 1.8231194047 0.7356099766
H -6.8092898788 0.6514053089 -0.4943105740
H -4.0070544766 3.5919083232 1.0241315113
H -5.6771842303 3.5782424559 1.6037101722
H -5.3324249320 4.0655561955 -0.0643893990
H -0.4517982724 0.7877651137 3.0737607282
H -2.4490218495 3.2994028721 -1.4537314916
