60
CONF485
C 7.9789532749 -1.2806709771 0.9945166509
C 7.0891104429 -1.9259589536 2.0547093089
N 5.8864689190 -1.1526327158 2.3725462647
C 6.0208220990 0.0089433830 3.2511051301
C 6.0442933509 1.3620362065 2.5335500681
C 4.7552467781 -1.4282724133 1.6264651772
O 4.7518122434 -2.2587365639 0.7224051570
N 3.6245376065 -0.7167610001 2.0003043067
C 2.3624035350 -0.7190489692 1.3850370720
C 1.4198968935 0.1860796312 1.8629102570
C 0.1283702352 0.2836253882 1.3393798794
C -0.2274495526 -0.5826302447 0.2821469904
C 0.7171298629 -1.4905607740 -0.2016307490
C 1.9949396666 -1.5694099222 0.3351202616
O -1.4932393401 -0.5035698596 -0.2174480443
C -1.8960526624 -1.4508410920 -1.2111135179
C -3.3674969689 -1.1992596906 -1.4869426002
C -3.6110777255 0.1734608809 -2.1328999646
N -4.9777366981 0.2429129360 -2.6716511940
C -5.9874580883 1.0234231242 -1.9138127202
C -6.1043707242 0.4759460266 -0.4900070207
C -7.3182907082 0.8273880782 -2.6458471718
C -5.6447883659 2.5223402854 -1.8693677066
O -3.7884728202 -2.2304522976 -2.3667963318
C -0.7531680844 1.3158690097 1.9773655190
O -0.3628440165 1.9102440567 2.9716523572
C -2.1056365206 1.6481136763 1.3953876081
H 8.8211875412 -1.9399864655 0.7610521393
H 8.3886960085 -0.3249594774 1.3356296199
H 7.4083980926 -1.1133959825 0.0769159295
H 7.6480982697 -2.0677951275 2.9880142908
H 6.7615329275 -2.9085100373 1.7087269439
H 5.2338517475 -0.0014886700 4.0209517123
H 6.9564141939 -0.1239058625 3.8037911319
H 6.1444667015 2.1711643312 3.2641685809
H 5.1288713079 1.5330054464 1.9603189011
H 6.8856386384 1.4182031033 1.8390548483
H 3.6949305569 -0.1002537979 2.7919262633
H 1.6603696034 0.8631343592 2.6784259514
H 0.4651770323 -2.1639671134 -1.0108019855
H -1.3116350475 -1.3220682830 -2.1338736430
H -1.7612376330 -2.4769885340 -0.8447798761
H -3.9117060341 -1.2609792262 -0.5301588942
H -3.3862620178 0.9686200206 -1.4099004573
H -2.8998811415 0.2797401717 -2.9624022481
H -4.9496355334 0.6072137608 -3.6162661789
H -5.1891409358 0.6464351901 0.0856560135
H -6.3145849565 -0.5980613640 -0.5044876901
H -6.9205009981 0.9816109404 0.0344664780
H -7.2526325270 1.1845848327 -3.6801400835
H -8.1164638509 1.3874899543 -2.1496513251
H -7.5909540239 -0.2316924015 -2.6655556237
H -5.5857036648 2.9349337481 -2.8828026278
H -4.6880230096 2.7037501528 -1.3693403288
H -6.4122979358 3.0800410678 -1.3228702965
H -4.6006752750 -1.8777362568 -2.7701057172
H -2.0177585585 1.9006301070 0.3346465886
H -2.5233256355 2.4846885857 1.9568308580
H -2.7706973637 0.7814753941 1.4556925065
H 2.7070371610 -2.2822658233 -0.0543299601
