43
CONF152
C -1.0947310918 2.4476370078 -4.8902607257
C 0.0526645199 1.6386488225 -4.4037022100
N 0.0315788436 0.3450784048 -4.2515453163
N 1.2139259108 -0.1852957292 -3.8144431286
C 2.1332248712 0.7220075891 -3.6238100244
S 1.6019163953 2.3559296552 -3.9752398057
S 3.7696122332 0.4290629995 -3.0629100535
C 3.5630140049 -1.2507909056 -2.2930628780
C 2.6569855316 -1.1703674785 -1.1141694643
C 1.4380785015 -1.7588543039 -1.0502391701
N 0.6167622832 -1.3582728558 0.0143189237
C 0.3782869245 0.0245077011 0.4859009099
C -0.0294747333 -0.5978979673 1.8645939998
C 0.1795825481 -1.9675499245 1.1753002093
O 0.0454536927 -3.1282929215 1.4811366854
N -1.3190356756 -0.3114159674 2.4085663247
C -1.4851517733 0.3095353058 3.6040278778
O -0.5701609000 0.6687176292 4.3307761809
C -2.9602215217 0.5469749796 3.9607956255
N -3.0887081883 1.0020592107 5.3265304060
C -2.9203156159 2.2313842463 5.8443336401
N -3.0395133843 2.1585801699 7.1567031789
N -3.2721296913 0.8454276151 7.4282908468
N -3.2960102971 0.1425007020 6.3444787980
S 1.8572753735 1.0809509934 0.3125052370
C 3.0639496514 -0.3094746811 0.0426687156
C 0.8814316645 -2.7104197242 -2.0413564489
O 1.5423497371 -3.4208501581 -2.7719595198
O -0.4656327209 -2.7273464674 -2.0054585211
H -0.8403263112 2.9606763618 -5.8227831377
H -1.3764024179 3.2075129218 -4.1553127351
H -1.9442183234 1.7854019123 -5.0666006848
H 4.5830866741 -1.5065992579 -1.9863759493
H 3.2209406259 -1.9525100534 -3.0496573888
H -0.4550446024 0.5121310322 -0.0311862118
H 0.7344326676 -0.4269722977 2.6284304592
H -2.1355016875 -0.5676116992 1.8700023274
H -3.3755560782 1.3082272036 3.2923069701
H -3.5426728089 -0.3709539262 3.8451631852
H -2.7290270646 3.1167249381 5.2545801694
H 3.1154007997 -0.9031692612 0.9615334276
H 4.0305172988 0.1686118813 -0.1263046629
H -0.7706373632 -3.3836432003 -2.6550392560
