26
CONF6
C 1.2411310627 2.3936093781 -1.2867655091
C 1.3218863933 0.8756072469 -1.1608239248
N 1.1766235955 0.4200284659 0.2360292967
C 2.4439687222 0.3513031632 0.9901054461
C 3.0963680496 -1.0205538031 0.8691945100
C 0.0099438367 0.0984108391 0.8056439880
S -0.1480684590 -0.4480509614 2.3945831577
S -1.4077738268 0.3529166869 -0.2922647512
C -2.8304295808 -0.3284752381 0.6460922948
C -3.3957221415 -1.5448322124 0.0014117716
C -4.5978212161 -1.6427885473 -0.5545973174
Cl -2.3230315572 -2.9558411794 0.0369801942
H 0.2657689085 2.7666535986 -0.9630731234
H 1.3898703515 2.6774130188 -2.3326790890
H 2.0176614475 2.8770034652 -0.6869788774
H 2.2967895801 0.5171375846 -1.5051243238
H 0.5681108673 0.3854825989 -1.7830138411
H 3.0974897091 1.1262208270 0.5775004285
H 2.2386917343 0.5952392946 2.0341333987
H 4.0443061801 -1.0217902325 1.4153989878
H 2.4494698598 -1.7932417142 1.2929235833
H 3.3035388416 -1.2671362590 -0.1764573301
H -2.4597039509 -0.5325345041 1.6604739750
H -3.5949697472 0.4516792088 0.6832751298
H -5.2381949060 -0.7665254025 -0.5762120410
H -4.9659036750 -2.5669351214 -0.9834697287
