33
CONF324
C -1.8620103581 -2.3425018445 -0.6495609753
C -2.4973454357 -2.3152807251 0.7362822822
C -2.5592463424 -0.9292087087 1.3639065446
S -0.8532853115 -0.2744763455 1.7571169460
P -0.7348502530 1.4126574849 0.5166543214
O -1.8242785955 1.5392745337 -0.4833248847
O -0.5867189027 2.7254101749 1.4000181313
C 0.4582701136 2.8624508704 2.4308512072
C 1.5014517818 3.8494155041 1.9659026478
O 0.7842244452 1.3329976745 -0.1039365970
C 1.1663176656 0.2547798746 -0.8797379997
C 0.6338119655 0.0692676887 -2.1501558907
C 1.0444014212 -1.0017203985 -2.9346952319
C 1.9985723262 -1.8737203167 -2.4265598897
C 2.5623007191 -1.7019810646 -1.1690456345
C 2.1377583534 -0.6249898996 -0.3989192951
Cl 2.8338731934 -0.3722836793 1.1797922598
Br 2.5711417178 -3.3571315793 -3.4910323410
H -0.8104639789 -2.0418475321 -0.6063534870
H -1.9066797831 -3.3486629979 -1.0765371672
H -2.3788807596 -1.6578235039 -1.3310023314
H -3.5353805575 -2.6689947258 0.6773254253
H -1.9731316805 -3.0033461790 1.4099822530
H -3.0868001477 -0.9447743970 2.3205154857
H -3.0412414230 -0.2063150931 0.7014874963
H -0.0677327460 3.2112039548 3.3223659274
H 0.8957322988 1.8814644547 2.6434967767
H 2.2382511591 3.9869460112 2.7637400693
H 2.0183133812 3.4833882016 1.0752755396
H 1.0464349237 4.8187262021 1.7448177992
H -0.1100082086 0.7675478964 -2.5169960384
H 0.6242251340 -1.1474059871 -3.9223829613
H 3.3129718785 -2.3830653688 -0.7878629918
