39
CONF13
C -3.2182970120 0.8551196965 3.4154664474
O -3.4375131254 0.0907465748 2.2214865124
C -2.5391817682 0.2396819198 1.2101836251
C -1.4258153790 1.0871541844 1.2566358377
C -0.5636265229 1.1596219878 0.1627691999
C -0.7983103351 0.3894137757 -0.9763516835
C -1.9077996290 -0.4575996290 -1.0239943030
C -2.7883843416 -0.5313674428 0.0665006924
O -3.9000038243 -1.3382809668 0.0039405507
C -3.6481844692 -2.6771782813 0.4805276035
O -2.2247390578 -1.2530526768 -2.0816506007
C -1.3436633237 -1.2243713563 -3.2132903606
C 0.6330112338 2.0957779719 0.2068051761
C 1.8933021683 1.5076876121 -0.3600393624
C 2.5182661949 2.0186032402 -1.4795177381
N 3.6494126448 1.5313835087 -2.0168984231
C 4.1653838301 0.4654599127 -1.3771274718
N 3.6590063782 -0.1342586180 -0.2853249546
C 2.5288243153 0.3804829669 0.2206105976
N 2.0351711348 -0.1955652469 1.3505224966
N 5.2922536368 -0.0964554647 -1.9165723132
H -3.2467021878 1.9303135118 3.2045649891
H -4.0359816808 0.5910711352 4.0865161009
H -2.2604588080 0.5931535824 3.8795454782
H -1.2214625470 1.6883775084 2.1347145793
H -0.1080413876 0.4521085276 -1.8088204029
H -2.8769164599 -3.1627261447 -0.1285840636
H -3.3336409646 -2.6580005874 1.5304854444
H -4.5894107533 -3.2223704694 0.3872145323
H -1.7667812088 -1.9265802597 -3.9319886262
H -1.3040724207 -0.2224023095 -3.6557156239
H -0.3336579022 -1.5459288618 -2.9336011117
H 0.7936632671 2.4091608226 1.2466229276
H 0.3945268079 3.0069917583 -0.3563490483
H 2.0824903288 2.8838989104 -1.9807518591
H 2.4133929679 -1.0947055845 1.6081396803
H 1.0670307267 -0.0386371797 1.5873229942
H 5.8218157062 0.4799908207 -2.5515109920
H 5.8288097635 -0.7028341605 -1.3163376622
