33
CONF6
C -3.2930812164 -1.4436721033 -0.6745675614
C -2.6299656592 -0.0676251983 -0.7612403959
C -3.6753502215 1.0307321419 -0.8279994747
O -3.1938048643 2.1333584830 -1.4555829057
O -4.7880871173 0.9715172959 -0.3617870909
C -1.7245949552 0.2079112135 0.4294144178
C -2.2590688148 0.3178717170 1.7152993779
C -1.4300644409 0.5706602807 2.8046634050
C -0.0620271483 0.7161880661 2.6236555013
C 0.4902698319 0.5845157494 1.3465094068
C -0.3488661627 0.3367077201 0.2556147009
C 1.9596121972 0.8017104712 1.1825096413
O 2.5598563352 1.5499043043 1.9403408939
C 2.6872667013 0.0985032930 0.0838667814
C 2.3168202875 -1.1750799329 -0.3612593736
C 3.0710718675 -1.8227168365 -1.3336164756
C 4.1850811820 -1.1953702979 -1.8835333184
C 4.5598862889 0.0732848322 -1.4432077416
C 3.8244577146 0.7106086542 -0.4545387098
H -3.9263286468 -1.5117782865 0.2124937197
H -2.5258183076 -2.2202415718 -0.6194557924
H -3.9212473667 -1.6267899153 -1.5508115004
H -2.0206263880 0.0017693623 -1.6681159208
H -3.8919867833 2.8060114464 -1.4120069685
H -3.3314010681 0.2226369736 1.8594821966
H -1.8587506990 0.6611185977 3.7975133518
H 0.5979525472 0.9341392641 3.4562365466
H 0.0726619679 0.2720499465 -0.7429507539
H 1.4559807213 -1.6702092657 0.0760877663
H 2.7906199499 -2.8186101706 -1.6610758967
H 4.7667397788 -1.6971515162 -2.6503124517
H 5.4310447371 0.5602244843 -1.8694501223
H 4.1117479579 1.6878209085 -0.0814537390
