28
CONF1
Cl -1.5426344198 -1.8624531117 2.9857115349
C -0.0451869757 -1.0758756500 2.3505900263
Cl 1.4018595518 -1.9735020025 2.9498255902
C -0.0575432024 -1.0318578528 0.8184407381
C -1.2889492357 -0.3502898004 0.2463301264
C -1.7624200254 -0.7812996006 -0.9936340408
C -2.8424132876 -0.1638572669 -1.6109968974
C -3.4601951493 0.9036850156 -0.9716235754
Cl -4.8260801018 1.6920072249 -1.7350140201
C -3.0167447032 1.3525664387 0.2652173703
C -1.9322230302 0.7221059175 0.8651014919
C 1.2153887810 -0.3813888820 0.2966996190
C 2.2082907930 -1.1605763701 -0.2953999886
C 3.3837055058 -0.5886231792 -0.7678542656
C 3.5636520224 0.7822135705 -0.6359613997
Cl 5.0414642092 1.5163462659 -1.2251330235
C 2.5907354293 1.5841510243 -0.0508092038
C 1.4190313679 0.9945858835 0.4065548857
H 0.0102992904 -0.0843229529 2.8038155799
H -0.0668428209 -2.0743325425 0.4819006925
H -1.2751090915 -1.6140980966 -1.4927151563
H -3.2030917165 -0.5075753395 -2.5732555919
H -3.5161290737 2.1793092692 0.7563647552
H -1.6139965755 1.0758313313 1.8403849246
H 2.0699087822 -2.2340844648 -0.3809244695
H 4.1517245171 -1.1982114720 -1.2291123694
H 2.7453175015 2.6531069248 0.0361922402
H 0.6481823455 1.6264399193 0.8368899219
