36
CONF119
C 0.9599861725 -0.7580373200 4.4187736275
C 1.2530018543 0.5999952513 3.8167575459
O 0.6951243287 0.6954489668 2.4730388306
C 1.4361456008 0.1402893421 1.4916226617
O 2.5339662242 -0.3399372214 1.6402042642
C 0.6654885770 0.1749360031 0.1799960263
S -0.1314559232 -1.5336406337 0.0968108447
P -1.9561662702 -1.0274609400 -0.8355990938
S -3.0067137817 -2.6274414796 -1.0906478612
O -1.5819224343 -0.1174813718 -2.1099647756
C -0.9598006588 -0.7504932397 -3.2531019630
O -2.5830993920 0.1883599908 0.0227201508
C -3.1108098157 -0.1023556524 1.3361899663
C 1.5001722821 0.4834803297 -1.0268749044
C 2.5664941844 -0.3327346391 -1.4134280383
C 3.3068404347 -0.0217876051 -2.5467859736
C 2.9916543137 1.1024784374 -3.3075888564
C 1.9313014657 1.9178521127 -2.9271618978
C 1.1884221449 1.6085412179 -1.7916799515
H 1.4567879907 -1.5483465696 3.8510741344
H 1.3298697167 -0.7898463063 5.4483096118
H -0.1161048713 -0.9522823271 4.4325481254
H 2.3273338735 0.7963928596 3.7649516345
H 0.7582672261 1.4041268102 4.3660519270
H -1.6164222801 -1.5268418478 -3.6564295169
H 0.0088684200 -1.1764752524 -2.9714194409
H -0.8123305386 0.0457239290 -3.9827869291
H -2.3056435756 -0.4302429143 2.0025649004
H -3.8856323239 -0.8720823077 1.2724174195
H -3.5358852773 0.8351130556 1.6958773413
H 2.8095172523 -1.2106590851 -0.8258605309
H 4.1332436402 -0.6613617896 -2.8397081686
H 3.5704575884 1.3390487967 -4.1945848963
H 1.6774876342 2.7939726592 -3.5153303192
H 0.3500486749 2.2363048745 -1.5041505874
H -0.1554044984 0.8884836766 0.2774661173
