39
CONF27
C -4.1443760608 1.8049602141 -3.4959091009
N -3.4076765194 1.3596248857 -2.3195652059
C -2.5559658721 0.3180970611 -2.2321226107
C -2.1146768922 0.2617462037 -0.9149304696
C -2.7800482686 1.3438502251 -0.2874147370
N -3.5507064490 2.0063642153 -1.1530065985
C -2.7230702025 1.8700597236 1.1031486745
F -3.3049616260 0.9962037165 2.0013912093
F -1.4168789389 2.0365077361 1.5171667595
C -1.1825025115 -0.7009832405 -0.2994267865
O -1.2033158744 -0.9585430994 0.9039291073
N -0.2923900395 -1.2752918252 -1.1636180232
C 0.7213934423 -2.1812454932 -0.7528893621
C 1.6905668411 -1.8026609628 0.1955024721
C 2.6357844664 -2.7517333052 0.5990745734
C 2.6182239153 -4.0120137390 0.0314592012
C 1.6972015976 -4.3915579373 -0.9286871673
C 0.7362639351 -3.4606353007 -1.3060844025
F 3.5552477358 -4.9094061181 0.4278155633
C 1.7539203978 -0.4390616815 0.7645348480
C 1.7051230842 0.6812996318 -0.0682271743
C 1.7515190822 1.9595415675 0.4725010289
C 1.8602704478 2.1372424012 1.8525042141
C 1.9326726042 1.0254056785 2.6853371078
C 1.8797602776 -0.2510143552 2.1441540040
Cl 1.8964373875 3.7332957352 2.5579027929
Cl 1.6611425731 3.3301817756 -0.6074909020
H -3.8648312968 1.1694845327 -4.3363599095
H -3.8870415837 2.8435825375 -3.7163007037
H -5.2182008175 1.7229139002 -3.3110498133
H -2.3483551787 -0.3106160851 -3.0871594496
H -3.2369646620 2.8326127580 1.1898722690
H 1.7211161633 -5.3885014761 -1.3539491626
H 1.6352833041 0.5663599231 -1.1432741783
H 2.0154763965 1.1662274965 3.7571289282
H 3.4015694851 -2.4961542648 1.3234669679
H -0.0252928525 -3.7310081792 -2.0303238005
H 1.9097613516 -1.1094315499 2.8068833688
H -0.3344762876 -1.0334014280 -2.1428549354
