38
CONF2
C -7.1844204810 -1.9317171258 -0.7315885579
C -6.0506978473 -1.0258610897 -0.3361531035
C -4.7668297907 -1.2403302461 -0.8299455639
C -3.7064860351 -0.3872490777 -0.4932971314
C -3.9323051761 0.6999194592 0.3558852437
C -5.2183475457 0.9080597395 0.8493181658
C -6.2697264372 0.0630731316 0.5155809282
N -2.4510564072 -0.6987064876 -1.0467262848
C -1.2790297172 -0.0273264202 -0.8943126825
O -1.0719458469 0.9733609861 -0.2404426968
O -0.3132450182 -0.6760934912 -1.6403945609
C 0.9911673353 -0.1831752053 -1.5616315568
C 1.5525119948 0.3552989414 -2.7101158930
C 2.8788981653 0.7719854348 -2.6501562016
C 3.6267205818 0.6640800521 -1.4820206232
C 3.0354073828 0.1169936703 -0.3352676695
C 1.7032484736 -0.3150513753 -0.3823866104
N 3.6983508800 -0.0312473140 0.8904581889
C 5.0097661091 0.2335269053 1.1790953074
O 5.8564873950 0.6544629824 0.4113451502
O 5.2373740957 -0.0515429243 2.4859878223
C 6.5939163117 0.1793111798 2.9292762730
H -7.8433065662 -2.1289781856 0.1189321622
H -6.8167864977 -2.8850584712 -1.1190250314
H -7.7938702346 -1.4644728084 -1.5139445737
H -4.5825817041 -2.0857088744 -1.4887827747
H -3.1249144928 1.3639234291 0.6277076240
H -5.3935027452 1.7503852114 1.5119039631
H -7.2637594078 0.2431626424 0.9146157744
H -2.4132742459 -1.5144360625 -1.6419000458
H 0.9645211574 0.4398588223 -3.6168602150
H 3.3450834230 1.1961163375 -3.5336686103
H 4.6532652132 0.9981134316 -1.4574200292
H 1.2277437701 -0.7483474937 0.4918628956
H 3.1499904187 -0.3961005817 1.6565733754
H 6.5997050476 -0.0964915492 3.9831603511
H 6.8600681986 1.2321610648 2.8082109734
H 7.2902272036 -0.4471280581 2.3664558186
