44
CONF4
C -1.5218713055 -4.0969808350 -1.8140767565
C -2.6611035979 -3.4984694859 -0.9780184953
C -1.9348866895 -2.7441785952 0.1514597178
C -0.5209863763 -2.4001825929 -0.4085812274
C -0.5005595699 -2.9590959036 -1.8489729424
N -0.1757655297 -0.9778402160 -0.3138277808
C -1.1100407480 -0.0042788254 -0.8581519264
C -1.6399765114 1.0063598469 0.1451607869
C -2.1832913365 2.2090178963 -0.3117292356
C -2.6997157248 3.1464006979 0.5745345672
C -2.6614035427 2.8742238998 1.9376942327
C -2.1152697080 1.6915950781 2.4204531424
C -1.6065289803 0.7633586952 1.5179691577
Cl -3.3004142395 4.0520030835 3.0665138499
C 1.1643899734 -0.6657831376 -0.1097315875
O 2.0271091373 -1.5223181886 0.0319923864
N 1.4220887109 0.6993857809 -0.0670133179
C 2.6629190595 1.3120498325 0.1769576619
C 3.8934651512 0.6872867030 -0.0528611025
C 5.0692979095 1.3920490891 0.1812373506
C 5.0488754238 2.7076133196 0.6334653976
C 3.8222209957 3.3270424424 0.8551405573
C 2.6390812455 2.6371307548 0.6324078472
H -1.8414453535 -4.4217850399 -2.8085117456
H -1.0971847230 -4.9681345798 -1.2993772205
H -3.2317826589 -2.7956449078 -1.5986481959
H -3.3657565560 -4.2462528961 -0.6037658289
H -1.8276292146 -3.3850249574 1.0320162432
H -2.4826891513 -1.8559617137 0.4802990001
H 0.2406092881 -2.9194223205 0.1752721497
H -0.8370735412 -2.1879183976 -2.5545658312
H 0.5061185081 -3.2634334829 -2.1466280122
H -0.6633091509 0.5343211634 -1.7073383639
H -1.9609454392 -0.5598062741 -1.2700787147
H -2.2026304032 2.4214933439 -1.3776815537
H -3.1199800088 4.0789160491 0.2163061531
H -2.0832783056 1.5020364889 3.4870315453
H -1.1605975440 -0.1560598479 1.8843826666
H 0.6295595852 1.3059479448 0.0865927053
H 3.9203411899 -0.3364379856 -0.3964801736
H 6.0185843615 0.8964519897 0.0029042486
H 5.9750357332 3.2433507328 0.8111640329
H 3.7822039280 4.3521812442 1.2094329802
H 1.6842164082 3.1247948949 0.8156517321
