54
CONF12
C 1.9323922733 -2.2901305191 3.2489015029
C 1.6823852867 -0.9991406933 2.4838772527
C 0.8199665562 -1.1953629706 1.2621459491
O 0.3868806264 -2.2603081294 0.8741194016
O 0.5998375186 -0.0084168573 0.6591559544
C -0.2523524134 0.0880788024 -0.5350489943
C -1.7007564266 -0.3108003719 -0.1359217208
C -2.1936628172 0.3245427234 1.1397660972
C -2.0529156384 -0.3399398862 2.3631784834
C -2.4823062229 0.2449631686 3.5515342833
C -3.0706187388 1.5075224364 3.5376064220
C -3.2394672877 2.1707326154 2.3243607818
C -2.8077774066 1.5822569146 1.1381192317
C 0.3030791894 -0.7832433625 -1.6535544088
C 1.6763215972 -1.0335922970 -1.7495464109
C 2.1949451293 -1.7813941481 -2.8010936673
C 1.3512425761 -2.2906045424 -3.7858179578
C -0.0151953546 -2.0435965932 -3.7040024930
C -0.5342510861 -1.2972499148 -2.6478341025
C -0.1619172757 1.5986757812 -0.8970496062
C -0.9964552059 1.9735392567 -2.1223801916
C 1.2847066274 2.0798028046 -1.1048722764
N 1.3954435371 3.5410923977 -0.9718618204
C 2.6276265717 4.0083947123 -1.6101557833
C 1.4027129385 3.9356509088 0.4392139788
H 2.4386992740 -3.0271984159 2.6200936861
H 0.9913925836 -2.7289990242 3.5918795042
H 2.6217396857 -0.5392301250 2.1519286407
H 1.1896799924 -0.2476107953 3.1128928522
H -2.3667257635 -0.0329396738 -0.9552021100
H -1.7357844219 -1.3981500516 -0.0420542517
H -1.6142783629 -1.3334127341 2.3834801453
H -2.3626973358 -0.2901170909 4.4888843945
H -3.4071295612 1.9652214413 4.4626845619
H -3.7140684070 3.1470523452 2.2987272377
H -2.9624735833 2.1048519440 0.1984412334
H 2.3505943476 -0.6529587903 -0.9900212172
H 3.2633927667 -1.9687545835 -2.8482644456
H 1.7553130755 -2.8757550938 -4.6058870107
H -0.6869868475 -2.4341263823 -4.4622666958
H -1.6031302236 -1.1210314057 -2.6109355466
H -0.5681302142 2.1203013172 -0.0229293355
H -0.6590932810 1.4228397600 -3.0066875653
H 1.6000739549 1.8063108745 -2.1193530485
H 1.9745232459 1.5795169073 -0.4039238874
H 3.5349192676 3.5560162055 -1.1638380366
H 2.7067239537 5.0958481495 -1.5069831668
H 2.6119590088 3.7629818860 -2.6771837718
H 2.2640567037 3.5055602743 0.9872627702
H 1.4563837850 5.0265827650 0.5159754640
H 0.4862378114 3.6082763510 0.9390320282
H 2.5590470632 -2.0932517479 4.1226173277
H -2.0651435535 1.7871875476 -1.9903423109
H -0.8656323181 3.0409082186 -2.3187823378
