49
CONF25
C -4.8917069620 0.5428852626 0.1894309497
C -3.4499086582 0.9491060941 -0.0243997682
C -2.5267366059 0.0943443641 -0.8428838552
C -2.4225972678 0.0630762028 0.6785277671
C -1.1673510888 0.5541030678 1.2664061406
O -0.4036810082 1.3672987415 0.7931268394
O -0.9353918557 -0.0871839246 2.4540785691
C 0.4056558702 0.0963753772 2.9921871037
C 0.2964840742 -0.1649646202 4.4249310427
N 0.2425704721 -0.3687605236 5.5598718741
C 1.3588934301 -0.8516179946 2.2999365680
C 2.2777889699 -0.3353437498 1.3933735723
C 3.0710775259 -1.2159523636 0.6605238185
C 2.9760374886 -2.5908141097 0.8489786862
C 2.0640810026 -3.0909828282 1.7750127348
C 1.2451850623 -2.2297126650 2.4973553568
O 4.0173353201 -0.7652181791 -0.2346313314
C 3.7178174547 0.3366139873 -1.0246664562
C 4.7590275663 1.2182916106 -1.2932368841
C 4.5287508747 2.2999604309 -2.1394486464
C 3.2703565839 2.5015239801 -2.7022902204
C 2.2393853485 1.6056407546 -2.4233783111
C 2.4562744341 0.5140997174 -1.5881962815
C -2.9460735487 -1.1526785308 -1.5528786695
C -1.7826677568 -2.0125700532 -2.0705105017
Br -0.6312252269 -2.4933249563 -0.5288567440
Br -0.6723265774 -1.0691748701 -3.3889970330
Br -2.4488225578 -3.6876420888 -2.8604553226
Br -4.1368839875 -0.6482683553 -3.0826179179
C -3.2416722577 2.4444110732 -0.0923996925
H -5.5164806777 0.9440858636 -0.6142182731
H -5.2476551122 0.9573391682 1.1380769822
H -5.0253420091 -0.5409247594 0.2228856545
H -1.7261965347 0.6458138161 -1.3304048227
H -2.8392341423 -0.8068051354 1.1747306209
H 0.7216419929 1.1358377276 2.8509075901
H 2.3577695021 0.7349437782 1.2396320210
H 3.6082988066 -3.2531403471 0.2673867190
H 1.9856696832 -4.1630825750 1.9226988815
H 0.5206385456 -2.6243257321 3.2029019834
H 5.7315138450 1.0495635775 -0.8427930401
H 5.3383999725 2.9909587465 -2.3522072347
H 3.0941750709 3.3494524346 -3.3557365328
H 1.2570865580 1.7484229621 -2.8636445251
H 1.6565087031 -0.1882136847 -1.3777362861
H -3.5728759628 -1.7961821189 -0.9327289645
H -2.1934730506 2.7079494657 -0.2407094790
H -3.8259597540 2.8502347636 -0.9248486179
H -3.5941624656 2.9142128924 0.8319143276
