119
CONF600
C 2.7114265817 -1.1377158353 1.8516856886
C 3.4035210915 -2.4114540372 1.3530831062
C 4.8953215484 -2.1905622615 1.1105856392
C 5.5939849897 -1.6460953805 2.3618735449
C 4.9053881433 -0.3662845888 2.8796513937
C 5.6501207343 0.1799005594 4.1004359484
C 7.1075664939 0.4551254906 3.7799961038
O 7.6888180266 1.0407038137 4.9584473902
C 7.8705037555 -0.8172640807 3.3238249880
C 8.0278118205 -1.7856431144 4.4957041232
C 9.2383608927 -0.3375689904 2.6640353438
C 9.0086320895 -0.3847756007 1.1293270537
C 7.5063669982 -0.6057998606 0.9295381204
C 7.1069380640 -1.4691601971 2.1245770603
O 7.6938795712 -2.7589906767 1.8348303507
C 10.4435074833 -1.0832569974 3.1172297561
C 11.0083170658 -2.2132682420 2.6599614686
C 12.1697832528 -2.5379714115 3.4813010020
O 12.9476650565 -3.4675751543 3.4183204940
O 12.3038647235 -1.5669443518 4.4506312471
C 11.2518299810 -0.6019640482 4.2811889838
C 3.3825393520 -0.5885074268 3.1406252699
C 3.1505506906 -1.5670187067 4.3051237879
C 2.6628784284 0.7243886440 3.5239671058
C 2.6073762293 1.7689092055 2.4106726581
C 1.9509441214 1.2066471214 1.1590209427
C 2.6323339969 -0.0879138241 0.7305641905
O 0.5517395212 0.9743488416 1.4882592994
C -0.2966542774 0.9221863150 0.3866106995
C -1.6234202194 0.3279831640 0.8169056467
C -2.6220466691 0.3518112178 -0.3342663243
O -2.1928436396 -0.6005293532 -1.3114428085
C -2.6992728151 1.7682378486 -0.9313143586
O -3.4464909944 1.8123226903 -2.1616985646
C -4.7807878915 1.4066077435 -2.0839286179
C -5.5712965683 2.0861764414 -3.1840954206
C -6.9999046413 1.5549322093 -3.2349477009
O -7.6873962351 2.0240703937 -2.0726836696
C -6.9910670554 0.0166390766 -3.2911029064
O -8.3004859615 -0.5522513529 -3.1147495976
C -9.2561956093 -0.1956926133 -4.0703919489
C -10.2877029345 -1.3016442057 -4.1778918094
C -11.4271154084 -0.8780206988 -5.1026664050
O -10.9700905449 -0.7311623136 -6.4622009559
C -11.9846842866 0.4882188385 -4.7004094920
O -12.9692727582 0.9263505458 -5.6347591927
C -10.8576689806 1.5215701006 -4.5517964394
C -11.3440386245 2.8497928498 -4.0155122119
O -9.8952432615 1.0071426265 -3.6076061472
C -6.1252559780 -0.5747436623 -2.1767821910
C -5.9851761275 -2.0795454382 -2.2603856698
O -4.8051076107 -0.0171454073 -2.3008842529
C -1.3063229728 2.3102111184 -1.2663403059
C -1.3293091684 3.7465893862 -1.7461960271
O -0.5055911170 2.2699638285 -0.0753534658
H 1.6768231196 -1.3918758941 2.1226172805
H 3.2680553290 -3.2169230715 2.0854731716
H 2.9204565241 -2.7482761557 0.4269218022
H 5.3708259849 -3.1270752974 0.8023165487
H 5.0326798447 -1.4828019497 0.2841651514
H 5.5057917911 -2.4095406568 3.1506163105
H 4.9882372696 0.3883823136 2.0848478313
H 5.5888059642 -0.5237050124 4.9387321322
H 5.2045076242 1.1209149538 4.4370100431
H 7.1488844202 1.1928128860 2.9638557307
H 8.5408824994 1.4302026667 4.7255173233
H 8.7004054850 -2.6094058075 4.2464659999
H 8.4282931842 -1.2713382601 5.3721879493
H 7.0609718014 -2.2109107909 4.7817598487
H 9.3965425582 0.7054719484 2.9656559861
H 9.5609991218 -1.2212833762 0.6969108493
H 9.3682958496 0.5289947950 0.6488063845
H 7.2857686432 -1.1065986495 -0.0161657064
H 6.9561827179 0.3397910081 0.9432826712
H 7.4657596979 -3.3605195576 2.5555509667
H 10.6940192680 -2.8361249943 1.8350980881
H 11.6961010634 0.3825608967 4.0847234974
H 10.6671872201 -0.5421559862 5.2075116807
H 3.4354278666 -1.1109428263 5.2587730252
H 3.7063704404 -2.5018826986 4.2026368750
H 2.0856520251 -1.8179450818 4.3653767116
H 3.1160103160 1.1585624883 4.4217493530
H 1.6349910666 0.4597886394 3.8031570689
H 3.6158301649 2.1091245967 2.1448030941
H 2.0516646586 2.6517197680 2.7462272492
H 1.9930254218 1.9447046104 0.3475283794
H 2.1080174252 -0.5250802717 -0.1285040074
H 3.6315670914 0.1810694963 0.3683494743
H 0.1479570478 0.3439531017 -0.4417877256
H -1.4855946624 -0.7036806858 1.1562186849
H -2.0056932047 0.9219347093 1.6547436373
H -3.6146147708 0.0700272433 0.0472047227
H -2.9224018008 -0.6601177813 -1.9489238238
H -3.1725285037 2.4348068312 -0.1919333012
H -5.2021545434 1.6184433879 -1.0864428594
H -5.0650044419 1.8888386290 -4.1357440037
H -5.5924495407 3.1681283818 -3.0203207614
H -7.4913399263 1.9419696079 -4.1395153900
H -8.6197778200 1.7944118203 -2.2146665921
H -6.5810786909 -0.2974026454 -4.2648142271
H -8.7812706070 0.0088980155 -5.0453857505
H -9.8193870791 -2.2170470239 -4.5560080928
H -10.6790859332 -1.5053044333 -3.1737655195
H -12.2395015751 -1.6163168993 -5.0645199289
H -10.8795511721 -1.6123571236 -6.8438012517
H -12.4861711774 0.3873234788 -3.7295443604
H -12.6084596309 0.7358577809 -6.5134692178
H -10.3645999528 1.6614195174 -5.5278993419
H -12.0806359709 3.2811919475 -4.6970357215
H -10.5074481675 3.5473872680 -3.9159811947
H -11.8103729656 2.7141556742 -3.0339303560
H -6.5521436841 -0.2816358974 -1.2044629070
H -5.3315326125 -2.4389895398 -1.4603784465
H -5.5540414506 -2.3667442940 -3.2251998746
H -6.9615952994 -2.5570371516 -2.1555383020
H -0.8554387081 1.6589818271 -2.0330677073
H -0.3101234327 4.0917263213 -1.9415688492
H -1.7808607288 4.3927453041 -0.9860272155
H -1.9096620227 3.8303566867 -2.6675344516
