40
CONF3
C -4.3844034096 -3.2696786506 1.8682791653
N -4.0433283335 -1.9204813038 1.4064133223
C -4.0469771280 -1.8324312912 -0.0567428861
C -3.7177914858 -0.4198521294 -0.5300129091
C -2.3383787402 0.0685743046 -0.0965141942
O -1.3893075294 -0.8234011139 -0.7281102752
C -0.0940850051 -0.7982403362 -0.3251782982
C 0.7630910524 -1.6701352371 -1.0114168955
C 2.1020071624 -1.7381664149 -0.6729364907
C 2.6041454130 -0.9383609247 0.3585963647
C 1.7553363309 -0.0664394439 1.0348616481
C 0.4076395919 0.0104823342 0.7006500528
C 4.0587419045 -0.9834338827 0.6844822857
F 4.5808966379 -2.2304337367 0.5494560063
F 4.3251667811 -0.5785674059 1.9504109338
F 4.8019590818 -0.1785069395 -0.1347698259
C -2.1052004425 1.5048893666 -0.5028057342
C -1.6310174268 1.8267275608 -1.7757836352
C -1.4686449803 3.1589323460 -2.1480417257
C -1.7852068039 4.1809831483 -1.2550490723
C -2.2614845846 3.8640947467 0.0157537042
C -2.4165776546 2.5319451376 0.3902223555
H -3.5965162735 -3.9690875116 1.5654356622
H -5.3407896110 -3.6454012192 1.4631931049
H -4.4450442795 -3.2823386730 2.9610416357
H -5.0191242605 -2.1296904643 -0.4923682131
H -3.2996591920 -2.5371955543 -0.4429354608
H -3.7809772697 -0.3696577895 -1.6236518913
H -4.4562665666 0.2880673391 -0.1333688406
H -2.2518979467 -0.0348214230 0.9919008854
H 0.3573684205 -2.2887466771 -1.8048380113
H 2.7572616128 -2.4174052076 -1.2081073393
H 2.1380947147 0.5621041006 1.8315249651
H -0.2298210477 0.7009455576 1.2372583413
H -1.3809082325 1.0330125693 -2.4732979259
H -1.0942540813 3.3992720119 -3.1385596622
H -1.6571455139 5.2188580765 -1.5463385482
H -2.5044927034 4.6545888374 0.7192374566
H -2.7775355500 2.2851060888 1.3858409519
H -4.7410942064 -1.2731811467 1.7635850994
