68
CONF156
C 3.1042491656 -1.3878951376 -2.3849426627
C 2.3586481954 -2.7041915979 -2.1801753663
C 0.9290195948 -2.5795117911 -1.6234589184
C 0.3035578873 -3.9892650379 -1.5455819781
C 0.9677404610 -2.0575025730 -0.1882751661
O -0.2522070619 -1.6629928215 0.2243385819
C -0.4041703684 -1.2830944914 1.6304854339
C -0.5997401226 -2.5605291132 2.4315743992
C -0.7631924053 -2.2605416377 3.9201868035
C -1.7648219343 -1.1620479005 4.1042771755
C -2.1661383289 -0.3236459896 3.1309049868
C -3.1666376331 0.7008425721 3.3909996685
C -3.4507286761 1.6793241087 2.5181803702
C -2.7109316767 1.8673966240 1.2257343157
C -1.3698815982 1.0984937677 1.2537736451
C -1.6187574994 -0.3619801833 1.7129513750
C -0.5848832259 1.2155085815 -0.0576278788
C -0.3424761763 2.6626120431 -0.4910742721
C 0.5270874607 2.7459407380 -1.7355601928
C 1.9755978782 2.3531576011 -1.5258045551
C 2.7661186549 2.6128473556 -2.7965673677
C 2.6995846193 4.1009472334 -3.1202253229
C 1.3422017810 4.7457125323 -2.9570558845
O 0.4061040332 4.1405894070 -2.2029999933
O 1.0825216733 5.8340521529 -3.4314068427
O 4.1214342248 2.1645249441 -2.7115770187
C -3.6150960595 1.5199510972 0.0297260371
C -1.1628736247 -3.5177742354 4.6994242278
O 1.9528396357 -2.0432111161 0.5253865226
C 0.0586026285 -1.6855318534 -2.5188269237
H 3.1989820320 -0.8344929428 -1.4462735116
H 4.1143573537 -1.5782020668 -2.7608935116
H 2.6005382113 -0.7426581020 -3.1113078933
H 2.2803750461 -3.2312081157 -3.1394652922
H 2.9352346577 -3.3520519267 -1.5109143859
H -0.7099994981 -3.9479886297 -1.1369783276
H 0.2548565375 -4.4157418295 -2.5528265525
H 0.9097496219 -4.6522091586 -0.9192535098
H 0.5055131538 -0.7625766891 1.9529740681
H 0.2499045837 -3.2309484899 2.2659828926
H -1.5048220250 -3.0629321781 2.0636434563
H 0.2073869269 -1.9189432604 4.3168036133
H -2.1970869400 -1.0465161061 5.0985452123
H -3.6984373512 0.6426105751 4.3388586595
H -4.2406135670 2.3932664178 2.7444856993
H -2.4777650423 2.9387236668 1.1496796256
H -0.7579766875 1.5698324156 2.0390968019
H -2.3948182412 -0.7988659846 1.0661024619
H -1.0982010523 0.6712943110 -0.8593471284
H 0.3829039031 0.7235669775 0.0781156408
H -1.2910270799 3.1584456213 -0.7211507885
H 0.1347565625 3.2304121916 0.3187897046
H 0.0892519283 2.1299201484 -2.5336263862
H 2.0219179446 1.2899180497 -1.2737393608
H 2.4027661900 2.9261450503 -0.6906303059
H 2.3285836946 2.0324594472 -3.6182634518
H 3.3554718781 4.6411764225 -2.4211516530
H 3.0584150946 4.3220575245 -4.1285807220
H 4.5461994852 2.6412069705 -1.9852703091
H -3.8586012596 0.4531372038 0.0116376466
H -3.1436419424 1.7816765266 -0.9223562109
H -4.5567104597 2.0737203510 0.1006089111
H -0.4166237354 -4.3078318682 4.5669457879
H -2.1296535473 -3.8945822305 4.3474123839
H -1.2491000614 -3.3026172002 5.7692377432
H 0.1266370652 -2.0412248658 -3.5525485953
H -0.9886807652 -1.7176782518 -2.2101323823
H 0.3871860780 -0.6424839097 -2.4924323289
