30
CONF6
O 5.1291273386 1.0686429144 -0.8778634951
S 5.2485862789 -0.4131995767 -0.1932763547
O 5.3037145766 -1.4257305962 -1.2382064387
O 6.2181044288 -0.2882595756 0.8763924937
C 3.5339199127 -0.5556928454 0.6743845064
F 3.3569462942 -1.8711069839 0.8984381983
F 3.6134944493 0.0955341164 1.8392454651
C 2.3467319234 0.0084549279 -0.1704735123
F 2.3382970305 1.3538784275 -0.0538893525
F 2.5478608485 -0.3203937888 -1.4710508912
C 0.9509663828 -0.5516694933 0.2802065647
F 0.9202393100 -0.5750546174 1.6311233774
F 0.8211049893 -1.8095134967 -0.1937448503
C -0.2540727833 0.3133505708 -0.2359874428
F -0.3437322618 1.4240164120 0.5277584203
F -0.0100992918 0.6708940083 -1.5171694077
C -1.6236805420 -0.4531710997 -0.1814174692
F -1.6851528483 -1.1482345779 0.9759830742
F -1.6760836853 -1.3132555978 -1.2222894425
C -2.8656706104 0.5034688825 -0.2557349297
F -3.0343611075 1.0878044939 0.9513603759
F -2.6269684313 1.4605749633 -1.1809256366
C -4.1895659851 -0.2383774556 -0.6451975306
F -4.1782695781 -0.4841855213 -1.9718887632
F -4.2608671628 -1.4112570926 0.0257669221
C -5.4889444133 0.5710606648 -0.3234341991
F -5.7085138173 0.6231695042 0.9937869792
F -5.3901145737 1.8185431555 -0.8043054081
F -6.5289649744 -0.0379704750 -0.9072586276
H 4.8136735017 0.9588008067 -1.7923100630
