34
CONF4
C -0.1633098164 -0.2883970384 -2.5782940342
C -0.8684869067 -0.0140144878 -1.2795851061
C -0.2384220390 0.1924625714 -0.0966251963
C -0.9924606144 0.5244405606 1.2026742488
C -2.4797980370 0.1585649691 1.0674857603
C -3.0868980646 0.6674441254 -0.2297206795
C -2.3699201184 0.0281783868 -1.4122680089
C -0.8391785455 2.0220800010 1.5283341301
C -0.4124124045 -0.2967480597 2.3686509480
C 1.2102726380 0.1714611954 0.0513222233
C 2.0883928128 -0.7121076994 -0.4608089420
C 3.5316614807 -0.5977284602 -0.1656517417
O 3.9960610174 0.3222847613 0.4929078864
C 4.4430680070 -1.6805915840 -0.7112737971
H 0.8930538464 -0.0198676866 -2.5521752270
H -0.6470362928 0.2654449081 -3.3903788311
H -0.2341631121 -1.3519930658 -2.8431146934
H -3.0194090851 0.5520157128 1.9377649627
H -2.5761309694 -0.9356216607 1.0999733414
H -4.1580821292 0.4418602926 -0.2712264465
H -2.9940500268 1.7580088692 -0.2878251984
H -2.6301324042 0.5450539204 -2.3446399036
H -2.7227655526 -1.0073380594 -1.5482130234
H 0.2120508608 2.3027463581 1.6409680358
H -1.2660114313 2.6508628817 0.7425233284
H -1.3450816810 2.2532948199 2.4726257768
H -0.4350490606 -1.3669265207 2.1384049265
H 0.6226397486 -0.0215791176 2.5910612711
H -1.0068965718 -0.1268343734 3.2732756491
H 1.6486050258 0.9255097488 0.7067813459
H 1.7534190330 -1.5542292346 -1.0590067137
H 5.1899836339 -1.2156649815 -1.3621605431
H 4.9859696713 -2.1363047809 0.1222016912
H 3.9105167911 -2.4557668701 -1.2663136255
