40
CONF24
C 1.5689029969 3.1896021849 1.6921764100
O 2.9412480552 2.7733212742 1.5203881729
C 3.2563629895 1.5971182081 2.1065666291
O 2.4938842390 0.9476764599 2.7814498056
C 4.6678145159 1.2040160071 1.7481357969
S 4.6267437818 -0.1371900089 0.4691957831
C 3.3507862503 0.4847927201 -0.6097768899
C 2.1059033343 -0.1497494489 -0.5851269023
C 1.0431774902 0.2507642470 -1.4047466027
C 1.2902352141 1.3313112238 -2.2643599635
C 2.5026346735 1.9909519367 -2.3104834245
C 3.5370585356 1.5602739329 -1.4860595055
Cl 5.0591042708 2.4074323560 -1.5670814331
F 0.3013290074 1.7567716433 -3.0694081596
N -0.1848388561 -0.3872208005 -1.4666081743
C -0.8309217053 -0.7381832735 -0.4225098710
N -1.9804866341 -1.5040253777 -0.5165047912
N -2.7837978779 -1.4239884234 0.6430230729
C -2.1443879229 -0.9670875578 1.7682479110
O -2.5755307512 -0.9998472621 2.8952715596
S -0.5126646341 -0.3157165142 1.2922275362
C -3.8006618014 -2.4763178220 0.7502081511
C -4.6861418507 -2.4420532164 -0.4889046606
C -3.8243462682 -2.5420984236 -1.7469933861
C -2.7652563851 -1.4464927529 -1.7633649558
H 1.3317208156 3.2955121372 2.7537142134
H 0.8970487090 2.4523798734 1.2440905355
H 1.4901375340 4.1467756831 1.1775442606
H 5.1503185443 0.7513967895 2.6174699730
H 5.2415413628 2.0574591139 1.3830143383
H 1.9759048102 -0.9959994344 0.0805246768
H 2.6332167728 2.8274968609 -2.9859973168
H -3.3029242395 -3.4534872861 0.8445851755
H -4.3567772212 -2.2750028936 1.6676001852
H -5.4018267831 -3.2688639612 -0.4405053839
H -5.2584789448 -1.5064985586 -0.4989974431
H -3.3316073232 -3.5214898392 -1.7844723706
H -4.4390041322 -2.4481023987 -2.6478031411
H -3.2272030930 -0.4513860587 -1.8557458413
H -2.0582186700 -1.5742514349 -2.5832789764
