35
CONF6
C -0.8958635039 2.9784371270 -0.4973798558
C -0.9668788614 2.1806453018 0.7709919478
C -1.2878400814 2.6952516950 1.9946851067
S -1.2816600917 1.4818687739 3.2329632959
C -0.8468273541 0.2348788806 2.1085995141
C -0.7180396712 0.7680144053 0.8470954371
N -0.3497937291 -0.0034117501 -0.2897366224
C 1.0805517379 -0.2256709080 -0.6289287226
C 1.9972596327 0.8017963846 0.0133710666
C 1.4936124056 -1.6586741079 -0.2478190499
O 2.7170069191 -2.0236361428 -0.8688246546
C 2.5320279111 -2.5435624549 -2.1826377141
C -1.2762104928 -0.4927928106 -1.1768691931
O -0.9635252533 -1.0916253302 -2.1981070297
C -2.7425210845 -0.2534954446 -0.8452065311
Cl -3.3484815838 -1.5746779642 0.2505488617
C -0.6524296726 -1.1733841717 2.5545819869
H -0.7388138343 2.3272726758 -1.3615918179
H -0.0697088256 3.6965444900 -0.4697684046
H -1.8170922926 3.5455440345 -0.6622518263
H -1.5319144156 3.7196324442 2.2413431471
H 1.1444577674 -0.1435486927 -1.7197303890
H 1.9203512214 0.7842690999 1.1051187874
H 3.0251741831 0.5540395213 -0.2638586730
H 1.7794878823 1.8158601526 -0.3323394806
H 1.6648198243 -1.7160305554 0.8340065481
H 0.6914807800 -2.3611275567 -0.5183264208
H 1.9598456848 -3.4824854016 -2.1556024078
H 3.5279097606 -2.7393716487 -2.5866407746
H 2.0067354630 -1.8384886164 -2.8409218914
H -3.3100995245 -0.3247072080 -1.7722480285
H -2.9287414637 0.6915581906 -0.3326356506
H 0.3079539082 -1.3041228370 3.0669484071
H -1.4442672445 -1.4855206249 3.2412437583
H -0.6779661059 -1.8392786334 1.6899277498
