20
CONF44
C -0.0740058033 -0.5769908118 -0.1919102005
O 0.6689255447 0.0769113687 -1.2499365945
C 1.9266920545 0.3750559633 -0.7954752627
O 2.7470164537 0.9552364717 -1.4811425818
C 2.0722718573 -0.1180448864 0.5600152387
O 3.2062524288 0.0109379930 1.2905366084
C 0.9115849331 -0.6967748169 0.9239456825
O 0.5234424395 -1.2837094682 2.0630727019
C -1.3119655988 0.2555566660 0.1705324505
O -0.9544317449 1.5644863093 0.6011184612
C -2.2507611645 0.4439969744 -1.0230244061
O -2.7019815198 -0.8034755636 -1.5499503871
H -0.3931105204 -1.5627903863 -0.5547691003
H 3.8735400520 0.4477576887 0.7387368928
H 1.2456743295 -1.2672810876 2.7102667132
H -1.8430013723 -0.2970355968 0.9595546380
H -0.6758415125 1.5245669618 1.5246524866
H -1.7522337724 1.0507091945 -1.7890669736
H -3.1321158515 0.9896427964 -0.6719643688
H -2.0859510315 -1.0887558655 -2.2351923055
