65
CONF108
C -4.0603320987 1.8047240931 -2.6789378176
C -3.5704894223 0.4210737626 -3.0994391662
C -2.9323497613 -0.3674071228 -1.9460329835
C -2.4806008615 -1.7622557735 -2.3976151531
C -1.7320662078 0.3884017569 -1.4187441119
O -0.7615960985 0.6835554699 -2.0932617673
O -1.8520308974 0.6811782044 -0.1096215213
C -0.7384172082 1.3932521704 0.5202468346
C -0.9146526330 2.8900995112 0.3277660841
C 0.2902059331 3.6427513287 0.9113234773
C 0.6758604103 3.0767053947 2.2452886734
C 0.2280609929 1.9092648372 2.7468155642
C -0.7510801081 1.0228620767 1.9949392911
C -0.4462637100 -0.4673367434 2.2691031210
C -0.5914501643 -0.7140215617 3.7848847987
C 0.2765255529 0.2447009620 4.5527134865
C 0.6556701310 1.4328610550 4.0530601558
C -0.3464756346 -2.1682121884 4.1964167594
C 0.9294245307 -0.8738854647 1.6935839993
C 0.7923516968 -1.7123011864 0.4201549229
C 2.0761098804 -1.8649172824 -0.3717767476
C 1.9398268369 -2.8076760081 -1.5502496618
C 3.1883329859 -2.7368250016 -2.4113501788
C 3.3161946295 -1.3279323846 -2.9587654662
C 3.0862951411 -0.2287393340 -1.9510193626
O 3.4195875757 0.9223592787 -2.1646300251
O 2.4471610579 -0.4995054652 -0.8014125197
O 3.1299058148 -3.6130209543 -3.5426164779
C 1.4942976002 3.6456222992 -0.0478987241
H -3.2317073554 2.4306135240 -2.3275321063
H -4.5350858122 2.3237778815 -3.5167713886
H -4.7922884238 1.7310063821 -1.8672581698
H -4.4077294464 -0.1731447634 -3.4838951243
H -2.8383861505 0.5072176316 -3.9115535189
H -3.6591253197 -0.4635564882 -1.1323266643
H -1.7413933382 -1.6815034993 -3.2005810238
H -2.0341236258 -2.3240258281 -1.5709120692
H -3.3413510555 -2.3244042441 -2.7714376488
H 0.1869373963 1.0542091738 0.0454172865
H -1.0258249740 3.1224517522 -0.7363930744
H -1.8340960382 3.1984265582 0.8403481079
H -0.0043903205 4.6911986789 1.0606116072
H 1.3829241629 3.6591243449 2.8364217388
H -1.7612637706 1.2300957289 2.3820305937
H -1.2212285516 -1.0642370601 1.7711575504
H -1.6416849774 -0.4899290879 4.0350664227
H 0.6041723850 -0.0523710432 5.5475640546
H 1.3032611275 2.0894958286 4.6312656306
H -0.6008256389 -2.3093842844 5.2519132252
H -0.9667021770 -2.8469072493 3.6015355461
H 0.7004708632 -2.4597358129 4.0685258473
H 1.5181922969 0.0258860429 1.4818872474
H 1.5080795349 -1.4429115463 2.4279457212
H 0.4356141391 -2.7171157983 0.6794607988
H 0.0399114458 -1.2789957085 -0.2492823064
H 2.8965788164 -2.1926860149 0.2804380436
H 1.0594668998 -2.5432472735 -2.1517681842
H 1.7974484629 -3.8207781414 -1.1582270446
H 4.0689067593 -2.9787067728 -1.7958684954
H 2.5499518460 -1.1849943783 -3.7342603495
H 4.2866329098 -1.1519648703 -3.4299998808
H 3.1365450512 -4.5202157117 -3.2109668438
H 1.8210870530 2.6244823498 -0.2701605399
H 2.3414467427 4.1793536950 0.3947569490
H 1.2315722036 4.1380992750 -0.9900776280
