45
CONF2
C -1.5975113098 -1.8465781499 1.6179414305
C -1.8557455471 -1.5927568386 0.1688966161
C -1.8155748864 -0.3868122796 -0.4091704314
C -2.0693009561 -0.1748701747 -1.8414052039
C -1.0964015178 0.6914882324 -2.7029458017
C -2.5175540746 1.1361330496 -2.4316506541
C -2.8232880520 2.3212631761 -1.5432229414
C -3.4385649652 1.0428421221 -3.6320247378
C 0.1012622823 1.2196942583 -2.0345374567
O 0.1677069186 1.9652954236 -1.0767857973
O 1.2132533818 0.6847123512 -2.6197786321
C 2.4675014244 0.9713408414 -1.9572899065
C 2.5351378535 0.3331808980 -0.5969117814
C 2.8041021172 1.0682371614 0.5512909854
C 2.8620848655 0.4689746874 1.8022421032
C 2.6422752481 -0.8917875839 1.9765885400
C 2.3580252990 -1.6225701402 0.8272644331
C 2.3220786012 -1.0321586911 -0.4259908462
F 2.0739845057 -1.8055172708 -1.4981036076
F 2.1347928239 -2.9460411675 0.9218893290
C 2.6815854650 -1.5579754461 3.3325096227
O 1.3767171069 -1.7886590213 3.8586810841
C 0.7289094738 -0.5818346076 4.2660968243
F 3.1407236955 1.2444303691 2.8677304902
F 3.0136732428 2.3932728122 0.4674605597
H -2.4421385832 -2.3666251153 2.0859226737
H -1.4218948524 -0.9125093523 2.1584927394
H -0.7197857450 -2.4910069645 1.7541850177
H -2.0868868500 -2.4635070856 -0.4467558077
H -1.5741157030 0.4815454449 0.2001302806
H -2.3956064569 -1.0665375776 -2.3727439382
H -0.8956888167 0.2734983345 -3.6839418185
H -2.1707297868 2.3877335056 -0.6751596726
H -3.8621009962 2.2526276209 -1.2016728735
H -2.7177176625 3.2493536958 -2.1154648015
H -4.4788785550 0.9550925514 -3.3000001342
H -3.2012345304 0.1740264010 -4.2528015881
H -3.3521123784 1.9435366200 -4.2498805221
H 3.2237228935 0.5430253594 -2.6184784662
H 2.6152072230 2.0495215515 -1.8788794375
H 3.2755690171 -0.9473980406 4.0246883575
H 3.1487565297 -2.5409901131 3.2391048668
H 0.5593837132 0.0931364671 3.4154206088
H -0.2363897675 -0.8697621825 4.6873064293
H 1.3227691052 -0.0580654337 5.0284209817
