46
CONF145
C -4.3134468424 -1.6534480133 0.8544621116
C -3.0619666120 -2.0167830487 1.6189405936
C -1.7283649118 -2.1163286243 0.9231750622
C -2.0048892357 -0.9683392661 1.9311322971
C -2.0637462138 0.4207116128 1.4449311186
O -2.5200050757 0.8133125797 0.3879922893
O -1.4921228696 1.2524401077 2.3556877335
C -1.3249343771 2.6276715431 1.9217111514
C -0.2506011297 2.7468261463 0.8729045641
C 0.9039947105 1.9676829646 0.9668129255
C 1.8914163420 2.0884548915 -0.0006515508
C 1.7637961323 2.9830686785 -1.0611339701
C 0.6116089224 3.7567238683 -1.1450424229
C -0.3957344765 3.6383839942 -0.1888229853
O 3.0479798192 1.3456136350 0.1782305754
C 3.5203998500 0.5799243859 -0.8718292795
C 4.8907927193 0.3289527383 -0.8843706185
C 5.4241915274 -0.4893822643 -1.8747103663
C 4.5996400512 -1.0481996973 -2.8500530910
C 3.2312604387 -0.7886617052 -2.8218824949
C 2.6795753988 0.0223280561 -1.8331821653
C -1.5743805844 -1.8427276937 -0.5055735002
C -0.5715617587 -2.2873784296 -1.2640671597
Cl -0.4910377893 -1.9583673397 -2.9770681813
Cl 0.7626383262 -3.2413020998 -0.6746573637
C -3.3040046971 -3.0203384104 2.7270725231
H -4.7127649836 -2.5497924077 0.3677026646
H -5.0709537088 -1.2832888599 1.5532422836
H -4.1499399284 -0.8854905768 0.0996883208
H -1.0446328863 -2.8558705575 1.3278009721
H -1.4956252491 -1.0795895038 2.8821225215
H -1.0432481365 3.1574332060 2.8358883769
H -2.2753673119 3.0221585694 1.5531944311
H 1.0381495199 1.2602314236 1.7786108886
H 2.5509651191 3.0647524004 -1.8033281985
H 0.4961128831 4.4548140669 -1.9681643906
H -1.3002926807 4.2329603524 -0.2747715338
H 5.5195091320 0.7736935841 -0.1199624537
H 6.4919139660 -0.6854573737 -1.8850388059
H 5.0194077342 -1.6827688286 -3.6234181207
H 2.5779062572 -1.2279194039 -3.5691166896
H 1.6118165028 0.2125848448 -1.8069944457
H -2.3231284896 -1.2401850805 -1.0059890069
H -3.7239806011 -3.9416517729 2.3092032668
H -4.0180182005 -2.6175069927 3.4534315046
H -2.3783253001 -3.2699457048 3.2529142051
