26
CONF16
C 1.5881513815 2.0563998906 -1.3630595890
C 1.3554632684 2.1325519579 0.1429767526
N 0.8515632869 0.8690282286 0.7220598705
C 1.8647335174 -0.0539364822 1.2783531831
C 2.3663840453 -1.0845961660 0.2706042854
C -0.4580081088 0.5822619178 0.6896177636
S -1.6365602836 1.5903396278 0.0303075550
S -0.8666369311 -0.9898455350 1.4838052822
C -2.6292902379 -1.2540311530 1.0399155922
C -2.8110540807 -1.8976061428 -0.2913503950
C -3.4408495475 -1.3700622004 -1.3336770784
Cl -2.1229094912 -3.5299897724 -0.4117931030
H 1.8934035127 3.0426752388 -1.7257792095
H 0.6709025757 1.7678751838 -1.8823677605
H 2.3766155542 1.3423449535 -1.6111995117
H 0.6300773872 2.9168778384 0.3729882978
H 2.2889279521 2.3656367793 0.6617456941
H 2.6933855262 0.5654177624 1.6306843471
H 1.4527885558 -0.5469176324 2.1640571473
H 1.5386721695 -1.6660781458 -0.1442062007
H 2.9076022953 -0.6072078679 -0.5491416803
H 3.0506347000 -1.7726019297 0.7762462891
H -3.0087452827 -1.8963047167 1.8416781895
H -3.1451371492 -0.2903602920 1.0626984649
H -3.8489867751 -0.3691924530 -1.2434453507
H -3.5611277399 -1.9026786938 -2.2694325306
