66
CONF9
C -3.7183008659 4.8983431321 1.5799140104
C -4.0340603924 3.9782226647 0.4225823916
O -3.2471149764 2.7782386894 0.6047374230
C -3.3444932346 1.8613622250 -0.3984645153
O -4.0746712176 2.0459489090 -1.3568594883
C -2.4819762400 0.7013700023 -0.1255839053
C -2.5160504765 -0.4028971528 -0.9215327401
N -1.7789483330 -1.5155338744 -0.5695108231
C -1.0466632519 -1.6437165543 0.5866089264
C -0.9856594537 -0.5949966830 1.4509600332
C -1.5512371111 0.7713899172 1.0863055869
C -0.4142928551 1.7924831611 0.9213898985
C -0.3928449123 2.9102205762 1.7554501353
C 0.6532222666 3.8228615136 1.7298986258
C 1.7269465954 3.6217814492 0.8653738997
C 1.7334608603 2.5125264039 0.0353064545
C 0.6743545302 1.5905192595 0.0445646900
C 0.7120669604 0.4439895570 -0.8561727805
C 1.7922319950 -0.2856080059 -1.1745038430
C 1.6461050681 -1.4516971634 -2.0623537204
O 0.5952004247 -1.8411574732 -2.5468308229
O 2.8467200726 -2.0439030806 -2.2439691587
C 2.9775420852 -3.2692236951 -3.0601367045
C 4.4682859794 -3.5724812392 -2.9612692077
C 2.1579014981 -4.3984486543 -2.4426610268
C 2.5812035295 -2.9816730849 -4.5045452969
C -0.2790740477 -0.7442956283 2.7219945957
O 0.3864381603 -1.7027997604 3.0790953125
O -0.4507257249 0.3595939553 3.5053296428
C 0.3403337008 0.4063917855 4.7152750087
C 1.7551592824 0.8608668332 4.4101779731
C -0.3824850011 -2.9755559391 0.7533447643
C -3.2674953505 -0.6051842851 -2.2005038214
H -4.3072893227 5.8160059809 1.4910968194
H -2.6582532148 5.1671950283 1.5830283707
H -3.9623447055 4.4241466977 2.5349888054
H -3.7755621474 4.4272437844 -0.5419661925
H -5.0945682508 3.7052545736 0.3895470892
H -1.6382541252 -2.2149932344 -1.2823294154
H -2.1407401332 1.1310880235 1.9338577048
H -1.2156326122 3.0499933036 2.4488219681
H 0.6358665088 4.6854970581 2.3891126727
H 2.5485422025 4.3300159449 0.8339223099
H 2.5497456143 2.3610410324 -0.6642276392
H -0.2233260388 0.1483670371 -1.3171216469
H 2.7729699311 -0.0964974483 -0.7502609504
H 4.7596735240 -3.7311577370 -1.9193633359
H 4.7017979928 -4.4759089182 -3.5314362092
H 5.0553506576 -2.7429811796 -3.3648639132
H 1.0880279282 -4.2107622942 -2.5371986298
H 2.4110634097 -4.5150538222 -1.3842626223
H 2.3976185533 -5.3350058323 -2.9558093644
H 2.8293101732 -3.8508688701 -5.1219026182
H 1.5135120061 -2.7797295613 -4.5936641152
H 3.1411804689 -2.1222173801 -4.8851725121
H 0.3293164356 -0.5778136376 5.1928793087
H -0.1822989707 1.1261511826 5.3511128269
H 1.7438542746 1.8214322371 3.8864941598
H 2.3179738196 0.9751592167 5.3422833779
H 2.2668355351 0.1241457925 3.7862205643
H -0.5987284063 -3.6222398951 -0.1019915082
H -0.7125320133 -3.4666766683 1.6711758593
H 0.6989402735 -2.8512370904 0.8467073747
H -2.5536838597 -0.8796737401 -2.9882105149
H -3.9738484916 -1.4363656741 -2.0895774124
H -3.8055978932 0.2895102344 -2.4953011183
