43
CONF12
C 2.8003346305 1.9017082504 -1.9604027648
C 3.0516810242 0.4917418333 -1.5654408779
N 3.4524642044 -0.4358012133 -2.3980330451
N 3.5759428612 -1.6633928878 -1.8386505158
C 3.2767679242 -1.6867909752 -0.5684119311
S 2.7987639019 -0.1105979012 0.0553446639
S 3.2766821968 -3.1321259477 0.4367540801
C 1.6096190142 -3.8435763424 -0.1002543200
C 0.5094944564 -2.8904115102 0.2095605849
C -0.0302472917 -2.0921857716 -0.7448833532
N -0.8547981254 -1.0324285675 -0.3968143289
C -1.0763459628 -0.5278717410 0.9512076692
C -2.3315195917 0.2183061685 0.4181703459
C -1.9279228517 -0.3532141466 -0.9762766676
O -2.3774056642 -0.2974119373 -2.0846960591
N -2.4394493469 1.6405683297 0.5861974121
C -1.4976116629 2.4819232239 0.0948780559
O -0.4651017073 2.1118894218 -0.4441511948
C -1.8001729819 3.9851171115 0.1989218421
N -2.5344388171 4.3908009658 1.3854653323
C -2.1216373690 5.0350678615 2.4954862295
N -3.1344472466 5.1362950900 3.3333491317
N -4.1807667994 4.5291799397 2.7189273386
N -3.8413116211 4.0813255148 1.5536585766
S -1.3745826655 -1.9066701536 2.1123694883
C 0.2072544863 -2.7405659487 1.6796367713
C 0.2812340934 -2.2239472634 -2.2043064647
O 0.3922364776 -3.2693585248 -2.7992752441
O 0.4327311965 -1.0098431005 -2.7673407213
H 3.0718099328 2.0210905973 -3.0108322583
H 3.3916578748 2.5954905793 -1.3552924408
H 1.7424679984 2.1489614303 -1.8247322799
H 1.5306856029 -4.7638150995 0.4869331521
H 1.6815422719 -4.0932210008 -1.1563510513
H -0.2633666044 0.1171424240 1.2990655315
H -3.2590390777 -0.2519538247 0.7573095825
H -3.3025061563 2.0276653416 0.9451078020
H -0.8426559540 4.5074604795 0.1847733516
H -2.3709947133 4.2800384122 -0.6889270193
H -1.1186697094 5.4075892375 2.6457736387
H 0.1430328338 -3.7376347819 2.1304267450
H 1.0364731464 -2.2247246372 2.1802184976
H 0.6559543449 -1.1546169701 -3.7009417522
