47
CONF109
C -7.1545163488 -1.5140849932 2.0673595207
O -6.4843751275 -1.2607871706 0.7997219704
P -5.2067338906 -2.1260424477 0.3837268874
S -3.8201733312 -2.3834164117 1.7185338943
O -5.8946837961 -3.4320966477 -0.2287119261
C -5.0760093413 -4.5651082893 -0.6334484904
O -4.7529596680 -1.3584274754 -0.9721417740
C -3.8283966164 -0.3113631661 -0.9482263025
C -2.5909316164 -0.5269689014 -1.5426618232
C -1.6694568973 0.5103077347 -1.5821636061
C -1.9798210791 1.7420825966 -0.9980245440
C -3.2262766707 1.9400700255 -0.4025898907
C -4.1653351075 0.9124946838 -0.3883475865
S -0.8358545940 3.1151369062 -1.0658435872
C 0.6902566757 2.3852379478 -0.4841427374
C 0.7166578600 1.4058540020 0.5125317810
C 1.9313115289 0.9018505457 0.9581052674
C 3.1135666448 1.4035098132 0.4283635745
C 3.1070732734 2.3944503716 -0.5447195091
C 1.8873699303 2.8739763172 -1.0117871585
O 4.3068837256 0.9045769301 0.9541596567
P 5.4616285702 0.2615797823 0.0111266502
S 4.8901744919 -0.8431737700 -1.4725438700
O 6.2644674645 -0.4245299855 1.2158308906
C 7.4742341610 -1.1727009936 0.9064387930
O 6.3615958844 1.4876562269 -0.5019670236
C 6.8655294321 2.4631642933 0.4603206693
H -7.9564952032 -0.7789482094 2.1246454014
H -6.4528112233 -1.3779338235 2.8939722171
H -7.5677329034 -2.5260611493 2.0780425694
H -5.7754386109 -5.3120773013 -1.0072732198
H -4.3844508800 -4.2650851861 -1.4255628086
H -4.5256233591 -4.9540110976 0.2267952459
H -2.3633501874 -1.4946453870 -1.9766432297
H -0.7054540185 0.3570690240 -2.0557429835
H -3.4657400916 2.8941325250 0.0549935575
H -5.1386582915 1.0564051605 0.0677443085
H -0.2072052717 1.0276889915 0.9367832798
H 1.9685000111 0.1320987813 1.7213077453
H 4.0369702379 2.7790316689 -0.9498204097
H 1.8731029512 3.6299739303 -1.7901902283
H 7.2304389073 -2.0311786061 0.2752454889
H 8.2046224431 -0.5285899386 0.4080989000
H 7.8636867497 -1.5072455607 1.8672729413
H 7.4671192404 3.1614185948 -0.1205336407
H 6.0308955419 2.9865070809 0.9343975329
H 7.4823972941 1.9682027786 1.2146136023
