29
CONF89
C 2.3822641200 0.6117690223 -1.7398811022
C 2.5402797827 -0.4550862501 -0.6936232731
C 1.6793066259 -0.6642083029 0.3129125701
C 0.4095280845 0.0870923554 0.5917173740
C -0.8182061001 -0.6799533301 0.0757787365
C -2.1857523562 -0.0439149859 0.4065941083
C -2.3193457801 1.3534617389 -0.1879059382
C -2.4244035763 -0.1041183879 1.8925549756
C -2.5139742792 0.9274507586 2.7269741895
O -3.2209904357 -0.9006397387 -0.1526247741
C 3.7663054038 -1.3106718536 -0.8604298383
H 2.3637499507 0.1562799481 -2.7380272459
H 3.2429849681 1.2925812731 -1.7263424335
H 1.4724136910 1.2020233344 -1.6193826025
H 1.8915701153 -1.4912261522 0.9920900205
H 0.4390871066 1.0826727483 0.1409277720
H 0.3050629132 0.2332362497 1.6742677499
H -0.8127528626 -1.6982625221 0.4847871284
H -0.7452034946 -0.7704927097 -1.0172649992
H -3.3261348073 1.7426852238 -0.0128727675
H -2.1412306971 1.3082283544 -1.2676910831
H -1.5975115005 2.0518335264 0.2434404864
H -2.5038309210 -1.1201073204 2.2810912433
H -2.4354773192 1.9559049264 2.3867142803
H -2.6640177194 0.7696811117 3.7908077503
H -3.0574994018 -0.9575590801 -1.1041024544
H 3.8425915424 -2.0693310794 -0.0769566412
H 4.6741987327 -0.6941818391 -0.8382838304
H 3.7569867166 -1.8151470195 -1.8351670984
