31
CONF4
C 3.8609297064 2.1811749243 0.5502068691
O 3.0272203974 1.2528273710 -0.1810266938
C 2.2812198471 0.4454515456 0.5905310204
O 2.1516393879 0.5420150122 1.7863681183
C 1.5201928964 -0.5383664962 -0.2470818321
C 2.1199544113 -1.4742239273 -1.0894503405
C 1.3591397885 -2.3233047412 -1.8875946010
C -0.0200017728 -2.2559044550 -1.8356114977
C -0.6276736945 -1.3355229208 -0.9805521666
C 0.1326606828 -0.4785071621 -0.1886341579
O -1.9981583876 -1.3520632993 -0.9649444012
C -2.6629636673 -0.3613076249 -0.2690372514
C -2.8275426145 0.9140231291 -0.8140096781
C -3.5569815377 1.8812250485 -0.1323870013
C -4.1208174726 1.5516039794 1.0947131901
C -3.9726263748 0.2854739238 1.6494890729
C -3.2369091423 -0.6677897488 0.9573032970
Cl -5.0399899683 2.7650768134 1.9528220927
Cl -2.1176007373 1.2969701326 -2.3550463641
N 3.5768084795 -1.6443085513 -1.0911159135
O 4.0845680220 -2.1750540100 -2.0717382421
O 4.1883654604 -1.2718643316 -0.0946516018
H 4.3935426911 2.7507410681 -0.2102261185
H 4.5598481703 1.6268828581 1.1817066741
H 3.2457721709 2.8368520630 1.1710863672
H 1.8624152019 -3.0381355525 -2.5268674090
H -0.6402003330 -2.9092824962 -2.4379167005
H -0.3392251133 0.2406219491 0.4709256310
H -3.6842396261 2.8690699701 -0.5568198420
H -4.4213381883 0.0506457569 2.6067479583
H -3.0980092813 -1.6650202279 1.3603115094
