45
CONF316
C 6.5218002614 0.9633105111 3.3796390778
C 5.0889095969 0.7270524678 2.9072766002
C 5.0202000193 0.1774552087 1.4829610052
C 3.5911945529 -0.0558148343 0.9942102140
C 3.5365914906 -0.6246784340 -0.4248151065
C 2.1249865822 -0.7353444997 -1.0078161869
C 1.2287640462 -1.7332419451 -0.2764271495
C -0.1934592983 -1.8261996955 -0.8669506381
C -1.0129999243 -0.5717983154 -0.6873693616
C -1.5413971455 -0.3054166816 0.5732788635
N -2.2547814623 0.8435265116 0.7050307090
C -2.4710585885 1.7196318171 -0.3563885407
N -3.1918542266 2.7528347127 0.0983312677
C -3.3723476423 2.4500759228 1.3998639021
N -2.8336858623 1.3068964015 1.8427054471
N -1.9975975512 1.4701876301 -1.5764548542
C -1.2905984409 0.3530476491 -1.7326219803
C -0.7930293548 0.0744431678 -3.1346672000
C -1.1011387092 1.1716061844 -4.1454253886
N -1.4703499914 -1.1020556151 1.6726000145
H 7.0346270075 1.6810722311 2.7304318597
H 7.0980703008 0.0319117925 3.3635306320
H 6.5490798915 1.3565193414 4.4002697544
H 4.5226733896 1.6662092573 2.9585121466
H 4.5860146623 0.0283310841 3.5889202878
H 5.5817735322 -0.7659581586 1.4300916575
H 5.5282615981 0.8736198636 0.8010510485
H 3.0348781908 0.8918284117 1.0267558675
H 3.0858361203 -0.7339035990 1.6944076026
H 4.0182337820 -1.6125506086 -0.4397564448
H 4.1366378003 0.0173829461 -1.0825055950
H 2.1976893617 -1.0372372339 -2.0610303278
H 1.6502593075 0.2554477701 -0.9958263046
H 1.6920913325 -2.7284636023 -0.3094106434
H 1.1734658369 -1.4509806920 0.7825568822
H -0.1180738928 -2.0740069209 -1.9287513084
H -0.7236043621 -2.6718980686 -0.4066528815
H -3.9255316340 3.0876520047 2.0785984700
H -1.2344088720 -0.8743834592 -3.4714041411
H -0.6523283582 2.1208731015 -3.8440053481
H -0.7480064702 -1.7983769994 1.7098337297
H -1.7598159936 -0.6849329601 2.5450563631
H -0.7055087070 0.8924450185 -5.1264994891
H 0.2880402156 -0.1044506193 -3.0969778710
H -2.1766779069 1.3371454792 -4.2339511020
