27
CONF381
C 3.1168529169 -0.0949979566 -0.0192788905
C 3.8495273033 -0.4664298079 1.2694493664
C 5.3312312297 -0.7458568410 1.0543705587
O 6.0687046306 0.4140741604 0.6306857834
C 1.6236777855 0.1187784330 0.2450190743
C 0.8829367601 0.5437389442 -0.9976583525
C -0.6623930430 0.7465143452 -0.8527957353
C -1.5176974094 -0.5623520903 -0.9034193329
C -2.9664087310 -0.4063347196 -0.3355591535
F -3.5701408324 0.6636522609 -0.8718759692
F -2.9492287504 -0.2786514876 0.9961799586
F -3.6744831835 -1.5018652118 -0.6477993053
F -0.9138102620 -1.5453904255 -0.1920649262
F -1.6273737065 -0.9637548906 -2.1895433995
F -1.1020623471 1.5443361817 -1.8582215466
F -0.9057415624 1.3831771947 0.3247591319
F 1.0632436688 -0.3510180009 -2.0268835008
F 1.3715805542 1.7479350641 -1.4426934673
H 3.5438428479 0.8211215702 -0.4425819975
H 3.2514408551 -0.8936357467 -0.7582929160
H 3.7380542352 0.3371240013 2.0087953675
H 3.3959659873 -1.3684415025 1.7022204497
H 5.4606929285 -1.5641640996 0.3304479014
H 5.7884251068 -1.0572828398 1.9988373438
H 5.8342803618 0.5979886951 -0.2866123406
H 1.4773719458 0.9014680217 0.9965993310
H 1.1731909347 -0.7984966856 0.6335244959
