47
CONF15
C -8.1257180804 0.9346968657 0.5146173727
O -7.3347039222 -0.2696053828 0.3021939262
P -5.9626912322 -0.4768292284 1.0936993186
S -5.9573351378 -0.0870812243 2.9976817397
O -5.5523343195 -1.9528926895 0.6416249589
C -6.1308656062 -3.1097818895 1.3128346853
O -4.9515091634 0.4101082242 0.1868620325
C -3.6805749529 0.7695045749 0.6472830712
C -3.4532653292 2.0991978260 0.9673136954
C -2.1777410714 2.4913616414 1.3614795453
C -1.1538153113 1.5463813496 1.4568002720
C -1.4055359948 0.2072667330 1.1450851482
C -2.6702148217 -0.1825551564 0.7232192063
S 0.4381105924 2.0883204415 2.0668485179
C 1.5879555724 1.1763032511 1.0448315712
C 1.4236562210 1.0855346768 -0.3403627642
C 2.3680234111 0.4175383224 -1.1082491511
C 3.4801306644 -0.1358155373 -0.4856152265
C 3.6661659416 -0.0464872928 0.8866382241
C 2.7074483627 0.6075840432 1.6552158982
O 4.3872213250 -0.8398868944 -1.2821870580
P 5.9023581338 -0.3134395732 -1.5265681965
S 6.1170743422 1.6125678986 -1.6691731271
O 6.3275558573 -1.1983692465 -2.7868941497
C 5.9309872790 -0.7959201947 -4.1291563881
O 6.6709682604 -1.0589839537 -0.3413977450
C 8.0787256578 -0.7762583629 -0.0928637811
H -8.9967660639 0.8290261991 -0.1311225146
H -7.5482696966 1.8181769765 0.2291819336
H -8.4324088324 0.9992805874 1.5614030558
H -5.8996400755 -3.0751378526 2.3802067301
H -7.2121294060 -3.1328143101 1.1544459738
H -5.6629328788 -3.9780634348 0.8504382078
H -4.2611474866 2.8190671215 0.8923839646
H -1.9827459743 3.5334387353 1.5927958165
H -0.6154687685 -0.5319881934 1.2236152037
H -2.8744549746 -1.2165513014 0.4670211203
H 0.5607785288 1.5347308198 -0.8206812631
H 2.2568634492 0.3361673364 -2.1842675519
H 4.5351228533 -0.4976496203 1.3532605151
H 2.8309861275 0.6657146723 2.7316172039
H 4.8406152888 -0.7681380426 -4.2062601532
H 6.3566222150 0.1822668356 -4.3655574148
H 6.3363321344 -1.5580768870 -4.7937028489
H 8.3496699515 -1.3849136002 0.7689876518
H 8.6776594403 -1.0616180437 -0.9615306700
H 8.2112363839 0.2846229760 0.1330494501
