30
CONF3
O -2.3353083880 2.4983400229 0.2494153125
C -2.4164506895 1.9387629873 -0.8230957183
O -2.1928936048 2.5609189944 -1.9987405812
C -2.8352568927 0.4973926714 -1.0247965793
C -2.3984458769 -0.4024496532 0.0969772479
C -1.0285235438 -0.6440061373 0.3186076248
N -0.0954021161 -0.0175162622 -0.5340826049
C 1.2832832860 -0.1036392099 -0.3247510055
C 2.1364321855 -0.7590064059 -1.2304657542
Cl 1.4312179437 -1.5477901603 -2.6334843210
C 3.5130353913 -0.8104447042 -1.0633607443
C 4.0814500722 -0.2152746010 0.0565493780
C 3.2809494819 0.4465919210 0.9809049770
C 1.9105031701 0.5130108610 0.7732800621
Cl 0.9405303389 1.4319063192 1.9062384561
C -0.6304593421 -1.4773293663 1.3671424656
C -1.5804957361 -2.0558811902 2.2022113089
C -2.9366771655 -1.8246395799 1.9925554412
C -3.3314234841 -1.0044139734 0.9377569816
H -3.9306735847 0.5088507147 -1.0806650007
H -2.4859251327 0.1525381832 -2.0042829203
H 4.1271226736 -1.3251827440 -1.7930213538
H 3.7168626177 0.9310443242 1.8468147455
H 0.4239750446 -1.6793354184 1.5251801915
H -1.2533620555 -2.6993370249 3.0131136888
H -3.6805857783 -2.2770045166 2.6398030143
H -4.3872537702 -0.8157279826 0.7637535910
H -1.9889207342 3.4944501514 -1.8152312337
H 5.1544812701 -0.2601271910 0.2060309766
H -0.3521575587 -0.0519742111 -1.5124145300
