42
CONF61
C -2.4313182475 3.0739293189 -0.3691932960
O -2.5094444650 1.6506492194 -0.1202634266
C -1.4587666799 1.1398083623 0.5250847612
C -1.2887080412 -0.1747061446 0.8161344244
C -0.0721259920 -0.5414497886 1.5867968660
C 0.1379950717 0.0801943855 2.8262758211
C 1.2753094650 -0.1653339450 3.5865065830
C 2.2360581203 -1.0525518935 3.1124499692
C 2.0493561766 -1.6665277906 1.8792032265
C 0.9117865105 -1.4270416865 1.1052170030
C 0.8288417990 -2.1830023325 -0.2000212790
O 0.0481339370 -1.5534868715 -1.2402820167
C 0.4641785332 -0.3550943088 -1.6977994777
C -0.3813874016 0.2964948860 -2.6124050793
C 0.0022800042 1.5385284056 -3.0710768956
C 1.1995741496 2.1085151862 -2.6177027817
C 1.9506254687 1.3652030696 -1.7286596585
N 1.6094462196 0.1517422106 -1.2725889233
C 3.2560604949 1.8734389829 -1.1646825239
F 4.2939280218 1.0661859159 -1.4957552406
F 3.2231297177 1.9281468977 0.1902685677
F 3.5566473356 3.1129649562 -1.6076802836
C -2.2501249951 -1.1933822185 0.3825609633
O -3.1791194524 -1.0334295245 -0.3911405570
O -1.9894547983 -2.3892789321 0.9718104324
C -2.8466140615 -3.4768620880 0.5629171193
H -1.5720949039 3.2951835892 -1.0102630971
H -2.3508289201 3.6188156148 0.5765927133
H -3.3567113968 3.3408858686 -0.8784433983
H -0.6912905419 1.8529877617 0.8310193332
H -0.6245788055 0.7580396673 3.1984498067
H 1.4051579213 0.3298360040 4.5436171967
H 3.1314837870 -1.2575884800 3.6905623549
H 2.8137794580 -2.3367268914 1.4942379971
H 0.3212853169 -3.1403249366 -0.0513637297
H 1.8398613004 -2.3729692427 -0.5739224923
H -1.3067649899 -0.1752832876 -2.9217304351
H -0.6251444248 2.0775184283 -3.7731269195
H 1.5195416313 3.0874390373 -2.9502271370
H -2.4922946878 -4.3476693820 1.1140249533
H -3.8873824838 -3.2601569117 0.8169158928
H -2.7603043312 -3.6436416089 -0.5142646335
