27
CONF7
C 2.1155877705 2.4711282379 0.2720960102
C 2.6155400435 1.1001425776 0.6589291349
O 1.7190695166 0.1324588063 0.0415554566
C 1.9691146466 -1.1522664323 0.3334691348
O 2.8832292095 -1.5525694807 1.0118790562
C 0.9696082090 -2.0945276820 -0.3157542882
N -0.1731165088 -1.4514798010 -0.9504298651
C -1.2022773372 -0.7501068738 -0.3255737392
C -2.0911506435 -0.1592655443 -1.2494865784
C -3.1946702613 0.5823626956 -0.8583704999
C -3.4328094298 0.7552587989 0.4991614734
C -2.5751640547 0.1908708026 1.4351976231
C -1.4704519945 -0.5558939232 1.0341886279
Cl -0.4622557912 -1.2181110999 2.3093486552
S -1.6108384476 -0.4800820103 -2.9047801989
C -0.1762519019 -1.4128906586 -2.3438909826
O 0.6430768989 -1.9248182003 -3.0699769491
H 2.7589068412 3.2345792644 0.7190348940
H 1.0939471655 2.6263435558 0.6296690449
H 2.1289452671 2.5995837036 -0.8134080108
H 2.5984193139 0.9388088110 1.7415588290
H 3.6315788328 0.9074861488 0.3002056066
H 1.5006507018 -2.6312511423 -1.1091145346
H 0.6557227959 -2.8253282572 0.4306037201
H -3.8521637144 1.0173403313 -1.6024590375
H -4.2882825447 1.3307320019 0.8339739077
H -2.7539650805 0.3214951690 2.4957021966
