44
CONF22
C 3.3284579406 -0.5870879277 -1.2591434047
C 2.5334347102 0.6526840724 -1.4874835059
N 1.6245823966 0.9874754272 -0.5710333596
C 0.8849536284 2.0812874750 -0.8378084296
N 1.0333753335 2.8436645052 -1.9217860708
C 1.9927023248 2.4272508920 -2.7552141190
N 2.7660324797 1.3482724965 -2.6085693320
O 2.1414323174 3.2043987013 -3.8242871005
C 3.1538363424 2.8317588962 -4.7930932219
N -0.1085328064 2.4642770664 0.0536649621
C -0.8536946558 3.6978636499 -0.2605021837
C -0.5726845320 1.7245104639 1.1714519746
O -1.5857647221 2.0541120981 1.7672809307
N 0.1989740466 0.6450688085 1.5387580366
S -0.3430415319 -0.4876040688 2.6781740335
O 0.6400935810 -1.5758141179 2.5764752020
O -0.5544647030 0.1873073305 3.9607470886
C -1.9327608193 -1.0963149390 2.0965192331
C -3.0727915118 -0.6556177910 2.7576706162
C -4.3103383242 -1.1893179520 2.4111073787
C -4.3943004959 -2.1707985325 1.4296294004
C -3.2455219828 -2.6188261069 0.7839052760
C -1.9993528032 -2.0767942929 1.0987225695
C -0.8146498315 -2.5038006188 0.2910377598
O -0.1429797331 -1.7440085587 -0.3760721932
O -0.6416812972 -3.8277511866 0.3466089911
C 0.4531610007 -4.3449337539 -0.4578859436
H 3.2319056359 -0.9278225742 -0.2279816783
H 2.9536274292 -1.3725048420 -1.9260990816
H 4.3774103460 -0.4165863138 -1.5125140378
H 3.0924864167 3.5982047979 -5.5644445018
H 2.9349313871 1.8464249384 -5.2098933756
H 4.1418431415 2.8308510994 -4.3279183168
H -1.4738107680 3.9432474549 0.5973968511
H -1.4841849503 3.5509304076 -1.1415017285
H -0.1470811030 4.5043562981 -0.4572148292
H 0.9267101952 0.3458787672 0.8522620047
H -2.9869947055 0.0878616645 3.5405256925
H -5.2035311718 -0.8429954528 2.9195685981
H -5.3565798165 -2.5966623702 1.1658607220
H -3.3107245527 -3.3844272051 0.0182382607
H 0.4512932071 -5.4197365852 -0.2850703840
H 0.2793073259 -4.1189235886 -1.5121843979
H 1.3949155731 -3.8993579398 -0.1294271790
