56
CONF405
C -3.9581874257 -3.7129320620 -0.7675527696
N -2.9189969992 -2.7193349867 -0.4976293133
C -2.2513937830 -2.8237629705 0.8032777610
C -3.0075339858 -2.1750019982 1.9757830391
C -2.9150431458 -0.6603106119 1.9515635579
O -1.5342470583 -0.3161452859 2.0772341745
O -2.4696866362 -2.6878086667 3.1943365977
C -2.4319275707 -2.0436810611 -1.5769415397
O -2.8458301849 -2.1872743945 -2.7191337093
C -1.3763133857 -0.9991519803 -1.2919342551
C -1.7295410575 0.3459950730 -1.2002927126
C -0.7913849738 1.3322866664 -0.8743604083
C 0.5352446610 0.9427560898 -0.6703550583
C 0.9394077025 -0.3826064599 -0.8318793440
C -0.0270557877 -1.3287714827 -1.1647113134
I 0.5594540196 -3.3379841217 -1.5121145007
C 2.3938017167 -0.7509520599 -0.6515314738
O 3.1772257352 -0.7264529383 -1.5948499160
N 2.7255008777 -1.0557354523 0.6217284304
C 4.1136753362 -1.2007346652 1.0531875587
C 4.6536971649 -2.6403512559 1.0094868115
C 4.6321915482 -3.2454090073 -0.3912528892
O 5.4673148077 -2.5008404795 -1.2748599780
O 5.9849877768 -2.6167088074 1.5156958803
I 1.9635734098 2.4093347733 -0.1357258180
N -1.1873834212 2.6761824018 -0.6982666144
C -1.6405002418 3.1344643999 0.4998146369
O -1.6503359990 2.4807469164 1.5365824225
C -2.1993392312 4.5523612902 0.4623363460
O -1.9106102127 5.2599985885 -0.7278498988
C -0.6363915306 5.9098671738 -0.6815319591
I -3.7209632769 0.9496053054 -1.5970605496
H -4.6352179481 -3.3371736888 -1.5358565075
H -3.5166464544 -4.6535785344 -1.1228529270
H -4.5136946115 -3.9057442188 0.1530884633
H -2.1149935901 -3.8872660178 1.0345302531
H -1.2614763926 -2.3697902263 0.7550280981
H -4.0660374516 -2.4640906600 1.9496758996
H -3.4990014063 -0.2515356472 2.7898014542
H -3.3451817362 -0.2807980777 1.0147405230
H -1.4597148485 0.6467856689 1.9492735297
H 1.9933522147 -1.0179646723 1.3149889025
H 4.7369314715 -0.5699962841 0.4091213059
H 4.2001399769 -0.8270707038 2.0772965020
H 4.0642917855 -3.2760718612 1.6842445903
H 5.0460878592 -4.2584206558 -0.3338849305
H 3.6033842231 -3.3122265138 -0.7687043506
H -1.3375962052 3.2780192912 -1.4998750035
H -1.8462192862 5.0776373005 1.3606382764
H -3.2899045926 4.4567456573 0.5344653217
H -0.6234678818 6.6784363620 0.1031632707
H -0.4896133531 6.3841800486 -1.6536760016
H 0.1764341243 5.1925935076 -0.4988749607
H -1.6983187779 -2.1416218765 3.3982081007
H 6.5418270371 -2.3541785964 0.7676701606
H 4.9226602431 -1.7678311808 -1.6058555253
