58
CONF37
C -5.1207637101 -3.0964131802 2.8352912886
C -4.4170674804 -3.9177321256 1.9591735631
C -3.1124216098 -3.5974586766 1.5846250100
C -2.4928311618 -2.4512474667 2.0826539899
C -3.2091034152 -1.6308810642 2.9611670267
C -4.5101462342 -1.9477038166 3.3371215861
C -1.0691618877 -2.0394887822 1.7101448076
C -0.2454056765 -3.1667386155 1.0635945010
C 1.2649835586 -2.9277839716 1.0660925374
C 1.7008361837 -1.7294261562 0.2579262898
C 2.3819429084 -0.6761663018 0.8654503220
C 2.7183722344 0.4654738375 0.1470983826
C 2.3957513183 0.5782085867 -1.2104703963
C 1.7505446175 -0.5051384252 -1.8293061094
C 1.4121647369 -1.6397992319 -1.1074942915
C 2.7069067917 1.8097830441 -1.9632412150
C 1.8687598220 2.2501124790 -2.9967145439
C 2.1339050182 3.4225247545 -3.6949601195
C 3.2568988722 4.1639564010 -3.3523257658
C 4.1172401894 3.7586241623 -2.3398775037
C 3.8352552396 2.5825530503 -1.6540219040
Br 3.6303338127 5.7898965340 -4.3021797190
O 1.8387770335 -4.1435268058 0.5411590791
C -1.1118877107 -0.7538576089 0.8983731293
C -0.6237877683 0.4483148075 1.3486526689
C -0.6875845585 1.6373536129 0.5370467481
C -0.1635341956 2.8791177073 0.9324382706
C -0.2510220460 3.9720671537 0.0870843633
C -0.8686941533 3.8466542454 -1.1626622909
C -1.3896179396 2.6290917200 -1.5735103662
C -1.2869969245 1.5334447810 -0.7217969893
O -1.7945420568 0.3484747284 -1.1629620048
C -1.7273994939 -0.8174350134 -0.4020324832
O -2.2113206734 -1.8084863357 -0.9220005933
O -0.0442708734 0.6387404426 2.5442919135
H -6.1358256763 -3.3482855626 3.1263049377
H -4.8838480979 -4.8133055610 1.5599337174
H -2.5865642661 -4.2453221378 0.8926083984
H -2.7380185134 -0.7334676749 3.3562083909
H -5.0459858532 -1.3003757890 4.0248278893
H -0.5802294629 -1.8278467615 2.6707547388
H -0.4183590877 -4.0835119392 1.6380798130
H -0.5808076475 -3.3491899506 0.0392994139
H 1.5976666356 -2.7821379828 2.1060407076
H 2.6177172515 -0.7324503412 1.9248628752
H 3.2005477004 1.2918279900 0.6598112179
H 1.5205493241 -0.4614685666 -2.8893521991
H 0.9050558461 -2.4605090120 -1.6064647430
H 0.9733833239 1.6904670532 -3.2450209719
H 1.4660355190 3.7551829715 -4.4812836291
H 4.9974703750 4.3405542526 -2.0920255673
H 4.5214724589 2.2568198893 -0.8792139524
H 2.7959538180 -4.0173743279 0.5010710719
H 0.3137204435 2.9678678421 1.9010758188
H 0.1587541765 4.9278533875 0.3953970883
H -0.9356301112 4.7050090032 -1.8231922348
H -1.8623513721 2.5082451210 -2.5420894965
H 0.0241801465 -0.1936885636 3.0346180177
