45
CONF21
C 4.0208524087 0.3673250938 -3.6912331829
C 3.9382603291 1.7358073959 -3.0146403824
C 3.3954142262 1.6847863985 -1.5832882061
C 1.9588554087 1.1731913836 -1.4793036737
C 1.4159019714 1.2312432063 -0.0534162590
C -0.0289782275 0.7213448091 0.0796444880
C -0.5413453935 0.8836522648 1.5211844828
C -2.0102233245 0.5048469675 1.6948730540
C -2.4952095744 0.6587576103 3.1364179902
C -3.9928157002 0.3944451859 3.3204811768
C -4.4151450457 -1.0289407764 2.9572468205
C -0.1670618123 -0.7083784968 -0.3994790109
C 0.5443995294 -1.7430566200 0.2162855451
C 0.4155120733 -3.0573525504 -0.2184631998
C -0.4306193391 -3.3649387127 -1.2812319587
C -1.1439373849 -2.3459425374 -1.9031348884
C -1.0102504149 -1.0313602813 -1.4635905838
H 3.0301416065 -0.0731600753 -3.8371527173
H 4.6088939131 -0.3318663111 -3.0859673618
H 4.4963039633 0.4412143557 -4.6740626423
H 4.9367826851 2.1898137139 -2.9977447767
H 3.3073312114 2.4045488167 -3.6153336745
H 4.0492298156 1.0467415443 -0.9716854064
H 3.4496169042 2.6902043623 -1.1443496886
H 1.3105669242 1.7676966747 -2.1398833075
H 1.9007651223 0.1396419871 -1.8398957391
H 1.4538723271 2.2660511842 0.3131702464
H 2.0692012817 0.6473798109 0.6100747036
H -0.6615886858 1.3442015679 -0.5698360556
H 0.0761562116 0.2716817261 2.1935884141
H -0.3915809533 1.9271890083 1.8303666075
H -2.6276345198 1.1308999944 1.0337409549
H -2.1524070237 -0.5294251094 1.3606112166
H -2.2655479725 1.6745072174 3.4857998455
H -1.9252212186 -0.0247459646 3.7817941154
H -4.5619671248 1.1117445365 2.7140585073
H -4.2616247526 0.5949367483 4.3649701735
H -4.2770712328 -1.2328173688 1.8913369146
H -5.4706782415 -1.1985978571 3.1908569470
H -3.8258225895 -1.7653829128 3.5152302822
H 1.2094509803 -1.5195218422 1.0456910985
H 0.9774584378 -3.8455315733 0.2732427266
H -0.5316410218 -4.3906804945 -1.6207843750
H -1.8063168705 -2.5731365448 -2.7328113709
H -1.5702778961 -0.2390164557 -1.9535030251
