119
CONF229
C -9.9038733122 6.1554507562 -1.8074540579
C -9.3264005771 5.3324661956 -0.6520379624
C -8.6092185334 6.2240394966 0.3634047593
C -8.4017270193 4.1863144887 -1.1236473249
C -9.1959473339 3.1292837407 -1.9169753216
O -9.3231520212 3.2264213622 -3.1348409885
N -9.7591083631 2.1163561600 -1.2161363971
C -10.6517512197 1.1626668640 -1.9068625238
C -11.1843317676 0.3139401069 -0.7700486481
C -10.8217863177 -1.1418102819 -0.6674641927
C -12.2394331433 -0.7229459870 -0.9800722966
C -11.1181498991 1.1999371208 0.4564510929
C -9.7712678949 1.9100885524 0.2444400964
C -8.6334193309 1.0396534482 0.7135768598
N -8.6777037792 0.2867882610 1.7998695190
C -7.4458473965 -0.3016810861 1.8836063094
C -6.6354836984 0.0937341412 0.8333085832
N -7.4255151579 0.9532686384 0.0904679758
C -5.2802960668 -0.2801221287 0.4762146570
C -4.4546864130 -0.8967682890 1.4400273411
C -3.1821455135 -1.2714010843 1.0827222906
C -2.6645526199 -1.0432056951 -0.2021498064
C -3.4660058623 -0.4275155785 -1.1544309347
C -4.7641389278 -0.0590392367 -0.8126499806
C -1.2871628327 -1.5394199350 -0.2557343815
C -0.9482269510 -2.0825559657 0.9925576218
C -2.1254012136 -1.9422219815 1.9297084870
F -1.8092143906 -1.1994306811 3.0475612043
F -2.5497080264 -3.1624406699 2.4120927850
C 0.2905330442 -2.6272958181 1.2456341738
C 1.2525078915 -2.6387239275 0.2183440966
C 0.9092961919 -2.0962724092 -1.0300222537
C -0.3458748336 -1.5470976216 -1.2778138820
C 2.5941015225 -3.2071086817 0.4484906482
C 3.7211759761 -2.5806696872 -0.0925218318
C 4.9555997085 -3.1657979095 0.1503913193
C 5.1055181044 -4.3494548941 0.9124319873
C 3.9761265352 -4.9680607037 1.4486873648
C 2.7402777707 -4.3884695035 1.2122861142
N 6.4429887963 -4.6976623660 1.0014752904
C 7.0771517965 -3.7645439011 0.3272195324
N 6.2383566755 -2.8190262194 -0.2124659428
C 8.5585806539 -3.6886383705 0.1092157704
C 9.3494581847 -4.8118777914 0.7978302494
C 10.8092925746 -4.7460294619 0.2947991368
C 11.3759211352 -3.4632691898 0.9833839212
C 10.1489689063 -2.9499371737 1.7602502565
C 9.4852569730 -4.2503835168 2.2245731661
N 9.1580843100 -2.4840242780 0.7590485080
C 9.0804370504 -1.2709657714 0.1772041861
O 8.3863364256 -1.0637205295 -0.8291053470
C 9.8198084742 -0.1219941286 0.8623787074
C 9.0344714886 0.3503220131 2.1198487475
C 9.8201318828 1.4427468173 2.8436386142
C 7.6211279443 0.8172007823 1.7730606115
N 10.0003190453 0.9394337490 -0.1069878474
C 11.2322946532 1.4833819798 -0.3174238251
O 12.2155215883 1.3103620853 0.3786373097
O 11.2042005147 2.2859824580 -1.4179662413
C 12.4528511500 2.9439511117 -1.6968407052
N -7.3180560077 4.7008208480 -1.9458440395
C -6.3890770580 3.8119910265 -2.3935609568
O -6.2269214235 2.6831468422 -1.9469585216
O -5.6285351291 4.3467982274 -3.3709564191
C -4.6044706902 3.4709548161 -3.8824973179
H -10.6935671712 6.8128909526 -1.4321145492
H -9.1450628394 6.8072874240 -2.2565188775
H -10.3228421621 5.5212727798 -2.5931242172
H -10.1690398732 4.8435004014 -0.1445224586
H -9.2811728253 7.0081517564 0.7256366767
H -8.2624279533 5.6469525137 1.2267318829
H -7.7384273788 6.7083611816 -0.0895053839
H -7.9458666264 3.7312462074 -0.2372100247
H -11.4443831137 1.7228215762 -2.4205653022
H -10.1041007363 0.5881518123 -2.6613045122
H -10.2347940299 -1.5751730192 -1.4710954429
H -10.6080741453 -1.5350640497 0.3205941419
H -12.9892241659 -0.8455286724 -0.2048217442
H -12.6029843886 -0.8785045262 -1.9913193575
H -11.9249547104 1.9434255240 0.4413086919
H -11.1403639872 0.6506708479 1.3983931389
H -9.7439850590 2.8733533421 0.7676501428
H -7.2107491595 -1.0046327678 2.6703025967
H -7.1170944589 1.5035699997 -0.7101223241
H -4.8156359876 -1.0621934576 2.4495925706
H -3.0991799957 -0.2406319907 -2.1590304070
H -5.3839874780 0.4115097878 -1.5667654384
H 0.5344565926 -3.0152267875 2.2295158077
H 1.6385409117 -2.1355505444 -1.8331048890
H -0.5808932348 -1.1464672650 -2.2589498323
H 3.6274448151 -1.6542846436 -0.6494914273
H 4.0700816826 -5.8817010509 2.0255217389
H 1.8466134066 -4.8700968004 1.5953326120
H 6.5730925364 -2.0096912027 -0.7221430469
H 8.7573325344 -3.6403699842 -0.9698576048
H 8.8632222446 -5.7817816534 0.7045885044
H 11.3564485171 -5.6374611631 0.6136860789
H 10.8672774930 -4.6967727685 -0.7963913623
H 12.1907870799 -3.6990877654 1.6748808307
H 11.7449176586 -2.7196862540 0.2718125158
H 10.3481611735 -2.1997432119 2.5251938167
H 10.1514172418 -4.8478623634 2.8525803078
H 8.5265271087 -4.1013685111 2.7249786467
H 10.8177772898 -0.4420609968 1.1826432355
H 8.9517214668 -0.5209489303 2.7835644755
H 10.8328252268 1.1131591825 3.0941790359
H 9.9069035096 2.3338218782 2.2138812871
H 9.3067025566 1.7299097561 3.7664163715
H 7.0255352292 0.0201279094 1.3173466572
H 7.6521651969 1.6627823232 1.0778954697
H 7.1031208412 1.1480386501 2.6780981209
H 9.3321457656 0.9653659660 -0.8655718658
H 12.2696763488 3.5436094308 -2.5887328976
H 12.7477702593 3.5820372735 -0.8593726778
H 13.2424406588 2.2109599709 -1.8833610244
H -7.5590682545 5.4222038772 -2.6096656511
H -3.9182320551 3.1772530183 -3.0837396038
H -5.0538955496 2.5782894150 -4.3255119715
H -4.0832015559 4.0533620748 -4.6417823894
