39
CONF96
C 5.3810427864 -0.6834516574 -1.2427920083
C 4.9798662413 0.5907061401 -0.4998883605
C 3.5027859109 0.9598695407 -0.6630798205
C 2.5625357896 -0.1009487692 -0.1008613083
N 1.1788517923 0.3591554068 -0.1759624685
C 0.1486154896 -0.5172706961 -0.1324623582
O 0.2856124993 -1.7340125494 -0.0641112393
N -1.1358906924 0.0813312215 -0.1782174822
C -1.4970721147 1.3827109167 -0.5709852720
C -0.8406244818 2.3774374500 -1.2859170289
C -1.5498224344 3.5537849229 -1.5328019029
C -2.8691889390 3.7150398668 -1.1004558010
C -3.5343330726 2.6989644926 -0.4223904325
C -2.8413898218 1.5211105455 -0.1630046352
N -3.3073476731 0.3636341473 0.4402262333
C -2.3040170619 -0.4610251813 0.4183327775
N -2.2599635617 -1.7463722098 0.8909180699
C -3.2297862480 -2.3502474367 1.6788483472
O -4.2342547367 -1.8513546295 2.1138656122
O -2.8357412477 -3.6372072122 1.8876657265
C -3.7443410648 -4.3946704486 2.7090975650
H 6.4610330066 -0.8453168592 -1.1838175309
H 5.1092171936 -0.6209782787 -2.3022727682
H 4.8958006543 -1.5707330013 -0.8250221665
H 5.5857427078 1.4284747715 -0.8631374994
H 5.2108900043 0.4853080957 0.5680363053
H 3.3158678260 1.9144540973 -0.1516884372
H 3.2731403619 1.1167350129 -1.7251684184
H 2.8341690611 -0.3379447718 0.9391205226
H 2.6261467729 -1.0325998823 -0.6684181726
H 0.9896122883 1.3309779761 0.0204490147
H 0.1614327767 2.2546365407 -1.6808125170
H -1.0652460072 4.3517175758 -2.0850486547
H -3.3874277897 4.6440908197 -1.3133938889
H -4.5667399717 2.8004374057 -0.1072474859
H -1.4267528882 -2.2760508315 0.6486237809
H -4.7307070200 -4.4456233303 2.2407204198
H -3.8393281316 -3.9368095390 3.6973013325
H -3.3023863993 -5.3879611435 2.7857523634
