46
CONF188
C -0.2285839216 3.6491614961 -0.6207351440
C -1.5236512990 3.1047082164 -1.2205686772
C -1.8712246562 1.7245868012 -0.6612740439
C -3.1489939046 1.1791366760 -1.2712789069
O -3.4701715869 -0.1249904844 -0.6855636834
C -2.8162718968 -1.1796397029 -1.1843124618
O -2.0528215120 -1.1519339284 -2.1258071169
C -3.1815338248 -2.4574047673 -0.4237488501
C -4.2514236788 -3.2245026110 -1.1812838909
O -2.0298380248 -3.3066272621 -0.3467680134
C -0.9161904981 -2.8043160980 0.2748002984
C 0.2683576183 -3.5151042076 0.0646423192
C 1.4556041417 -3.0730790483 0.6323787681
C 1.4459736259 -1.9233619041 1.4105047307
C 0.2759533352 -1.2208558840 1.6482863370
C -0.9153099074 -1.6597987562 1.0770813802
O 2.6428091433 -1.5173564710 2.0154352042
C 3.2069028600 -0.3537463395 1.6024527973
C 4.2596700070 0.1338665549 2.3898536288
C 4.9338955592 1.2901892141 2.0810717133
C 4.5469747235 2.0028173097 0.9338225590
C 3.5011493502 1.5323877210 0.1292584336
C 2.8364129481 0.3620025564 0.4629180927
C 5.2252793161 3.2013305949 0.5906220432
N 5.7770956296 4.1814838044 0.3092525621
F 4.6114918919 -0.5682051820 3.4854514477
H 0.0140332795 4.6358322911 -1.0269324060
H -0.3113008449 3.7416092220 0.4676850569
H 0.6108117365 2.9786404824 -0.8365962957
H -2.3489506739 3.7993391550 -1.0180891323
H -1.4274983937 3.0399588914 -2.3118789410
H -1.0468519513 1.0297384411 -0.8630419487
H -1.9904929243 1.7829436737 0.4278976033
H -4.0111006512 1.8034082839 -1.0268431572
H -3.0691497334 1.0701214825 -2.3564360625
H -3.5376268283 -2.2011037563 0.5807527536
H -4.4900853142 -4.1454788695 -0.6437728428
H -5.1572596960 -2.6173691608 -1.2572496081
H -3.8998278667 -3.4716080999 -2.1865979188
H 0.2494266562 -4.4035440949 -0.5576087165
H 2.3848298244 -3.6076339994 0.4663739512
H 0.2896356377 -0.3308252119 2.2693675859
H -1.8211591077 -1.1001654614 1.2747735846
H 5.7400859101 1.6337238062 2.7189705410
H 3.2122646143 2.0828284759 -0.7585238551
H 2.0286611893 -0.0011639554 -0.1617190271
