84
CONF8
C 0.9296528029 1.4383334550 0.3889558538
C -0.5236862169 1.4846839751 -0.0928909539
C -1.3716133097 0.5495288152 0.7510201971
O -2.7312650760 0.5647103356 0.2322199907
C -3.7478483233 0.8056514460 1.0855509181
O -3.6031715470 1.1196679133 2.2540176973
C -5.0704840097 0.6479591808 0.4287687225
C -6.2006388785 0.9644436829 1.1857165329
C -7.4646565097 0.8181686790 0.6175847943
O -8.6336256547 1.0935439786 1.2506572821
C -8.5514508497 1.5668927493 2.6040264308
C -7.5911589041 0.3595724298 -0.7046689302
O -8.8297383164 0.2568828085 -1.2773248547
C -9.4484486126 -1.0332036280 -1.0638618029
C -6.4451319226 0.0372951457 -1.4503291160
O -6.6802032932 -0.4094671705 -2.7108305780
C -5.5380855756 -0.7597647491 -3.5075716479
C -5.1781833858 0.1871567855 -0.8863710472
C -0.8817237467 -0.8931771906 0.6917714029
O -1.6511455412 -1.7007804266 1.5894481954
C -2.5703409330 -2.5832557208 0.9388571411
C 0.5796134868 -0.9542943071 1.1353950155
C 1.1102721388 -2.3668689286 1.0254242738
O 0.6608938855 -3.2399466006 0.3104617702
O 2.2078400070 -2.5220338502 1.7876804361
C 2.8715146203 -3.8075187555 1.6828569854
C 1.4971146351 0.0109610511 0.3431785431
C 1.7247025103 -0.4255292128 -1.1061661312
C 2.6051041971 0.5677941030 -1.8686487869
N 2.0474197845 1.9363984594 -1.7801369458
C 2.9146747756 2.8799473691 -2.5085287705
C 4.3296405110 3.0414717809 -1.9071946637
C 4.8427283498 1.7076396183 -1.4714745138
C 4.0461105604 0.5901909337 -1.4390949037
N 4.7817007759 -0.4879181534 -0.9716111108
C 6.0611335758 -0.0717148879 -0.6883748163
C 6.1348817163 1.3159704207 -0.9884306841
C 7.3527888220 1.9782853012 -0.7756451981
C 8.4363363394 1.2694410451 -0.2851657708
C 8.3333807072 -0.1094148418 0.0029098057
O 9.4835224985 -0.6827959258 0.4818806417
C 9.4375908210 -2.0772840116 0.7971143540
C 7.1432817373 -0.8052890233 -0.1942447539
C 1.8551533928 2.3726484674 -0.3887003875
H 0.9445622059 1.7725371218 1.4357402264
H -0.9127119282 2.5049211515 -0.0012747490
H -0.5985650715 1.1978146082 -1.1473224042
H -1.3932822488 0.8782144557 1.7947288630
H -6.0700677492 1.3151341637 2.2004284064
H -9.5823425315 1.7236628755 2.9214726590
H -8.0734312923 0.8223142818 3.2505163931
H -8.0000159468 2.5125337424 2.6538705177
H -9.5768814518 -1.2218093566 0.0076963162
H -8.8402385554 -1.8259856133 -1.5134461232
H -10.4229361342 -0.9904003655 -1.5528442300
H -4.8885065091 0.1089740113 -3.6631161242
H -5.9407963362 -1.0946599737 -4.4634893888
H -4.9691864514 -1.5714592626 -3.0399695066
H -4.2861401763 -0.0571512949 -1.4447013499
H -0.9861281296 -1.2716919461 -0.3339524625
H -2.0370046125 -3.2941390210 0.2947531377
H -3.3064360391 -2.0321444665 0.3390580124
H -3.0907666691 -3.1297410296 1.7290528160
H 0.6245676562 -0.6589516452 2.1916028981
H 3.1871885528 -3.9829776298 0.6515533726
H 2.1994535865 -4.6055106593 2.0068179866
H 3.7350895741 -3.7406564335 2.3430902920
H 2.4702403707 0.0224396282 0.8508713663
H 2.1857715431 -1.4191901871 -1.1443898979
H 0.7745571289 -0.5105648384 -1.6427722691
H 2.5644826983 0.2842837081 -2.9318899488
H 2.4119079625 3.8534037849 -2.5459638180
H 3.0023340859 2.5111625485 -3.5383605609
H 4.3140322169 3.7439514597 -1.0617047946
H 4.9851925396 3.4927545879 -2.6627161804
H 4.4449372128 -1.4311382162 -0.8648593497
H 7.4515327779 3.0383317979 -0.9922409829
H 9.3892771312 1.7592218757 -0.1117250172
H 8.6982895641 -2.2809923269 1.5816862287
H 10.4339955175 -2.3347692448 1.1581901503
H 9.2026054216 -2.6762435744 -0.0914926147
H 7.0426251353 -1.8622148529 0.0205546598
H 1.4286915211 3.3834949455 -0.4147003550
H 2.8096542586 2.4322581257 0.1639850898
