50
CONF26
C -1.9285365729 1.0383116447 -1.3420997038
C -2.2088587274 -0.2430110935 -2.0917279379
C -1.1298036954 -1.2632476473 -2.2813980422
C -2.3051002360 -1.5822201364 -1.3435524931
C -2.1901038038 -1.7388344582 0.1135163359
O -2.9811233368 -2.3544712154 0.7998894860
O -1.0880420358 -1.1317035669 0.6364090324
C -0.8849499095 -1.2828270864 2.0624548151
C -1.8840084955 -0.4881119906 2.7874094465
N -2.6442175390 0.1566992904 3.3705961685
C 0.5187872694 -0.8124916763 2.3567675541
C 0.8672293048 0.5026545899 2.0509034684
C 2.1718694066 0.9241607547 2.2808378100
C 3.1155735808 0.0564724525 2.8330455318
C 2.7465974306 -1.2459143474 3.1411656999
C 1.4487386298 -1.6944411926 2.8977114273
O 2.5870347364 2.2127478531 2.0326136491
C 1.8949380194 2.9477594530 1.0736443484
C 1.8499786330 2.5090591738 -0.2464750628
C 1.1999735926 3.2922877437 -1.1946090853
C 0.6109148105 4.5015278518 -0.8260265670
C 0.6764317402 4.9288058978 0.4979490350
C 1.3181670040 4.1500490138 1.4598059892
C 0.2492985010 -1.0150545843 -1.8009161509
C 1.1717832523 -1.9232534734 -1.4846924526
C 0.9985440358 -3.4140632969 -1.4196266560
F 1.9088275376 -4.0648770088 -2.1830156016
F -0.2222931427 -3.8020775517 -1.8328993398
F 1.1551048023 -3.8720248096 -0.1510585343
Cl 2.7795373543 -1.4361401166 -0.9799490282
C -3.2121507964 -0.0792311881 -3.2133403201
H -1.5830852171 1.7985081026 -2.0512496428
H -2.8488548754 1.4061211991 -0.8766666664
H -1.1722977091 0.9333742543 -0.5637678188
H -1.1831277649 -1.8469180504 -3.1977503548
H -3.0365425358 -2.2756373880 -1.7448051965
H -1.0142171959 -2.3325577922 2.3465246112
H 0.1325193133 1.1852153676 1.6366390678
H 4.1249385185 0.4130212183 3.0089145529
H 3.4813410780 -1.9234897459 3.5633283004
H 1.1662699672 -2.7174646156 3.1229616392
H 2.3180923574 1.5686354165 -0.5196321930
H 1.1602797285 2.9578832654 -2.2266646856
H 0.1065978065 5.1096218480 -1.5698219079
H 0.2221370088 5.8702999800 0.7900004127
H 1.3733427126 4.4631738399 2.4970982737
H 0.5576220501 0.0255406225 -1.7243868545
H -4.1692018745 0.2776926178 -2.8189824405
H -2.8431710505 0.6575816144 -3.9350542544
H -3.3827837845 -1.0221406129 -3.7400176700
