47
CONF121
C -0.7130655232 1.1680779472 3.0806900336
C -1.1440608828 1.6365382968 1.7089866054
C -2.5869411413 1.9930572447 1.4497147074
C -2.0282146226 0.6629886794 0.9277260303
C -1.8945215273 0.4940635593 -0.5249677845
O -1.8325314736 1.3616059539 -1.3694055366
O -1.8465523041 -0.8413626132 -0.8340776010
C -1.6905998461 -1.1265262565 -2.2432376053
C -2.1545455370 -2.5045235918 -2.4133196411
N -2.5028952977 -3.5911203033 -2.5903234940
C -0.2554501966 -0.9840681206 -2.7116851446
C 0.0071837152 -0.4097447545 -3.9532859727
C 1.3235428868 -0.3238591950 -4.3993689227
C 2.3693688458 -0.7893660635 -3.6104955321
C 2.0873233705 -1.3513378795 -2.3672989950
C 0.7774402632 -1.4650333724 -1.9104802533
O 3.1532313106 -1.8562886785 -1.6519747097
C 3.1368739387 -1.7388128959 -0.2680540732
C 2.8408321812 -0.5242608879 0.3459702734
C 2.9137936987 -0.4357024745 1.7326277309
C 3.2813954772 -1.5442116627 2.4945869261
C 3.5814695517 -2.7482916589 1.8613533620
C 3.5083885214 -2.8536214240 0.4739594272
C -3.6121127777 1.9531108082 2.4937522872
C -4.6344068998 2.8026751616 2.5994751620
Cl -5.8133153867 2.6841473969 3.8810639280
Cl -4.9292086965 4.1217046713 1.4994464218
C -0.0933757990 2.4469876981 0.9869136293
H 0.2270617385 0.6132874106 2.9981014304
H -1.4475958232 0.5156267108 3.5567445251
H -0.5419542342 2.0329730662 3.7308959342
H -2.7267867501 2.7358677672 0.6703093516
H -2.3118248409 -0.2338647057 1.4675653539
H -2.3420878104 -0.4695752246 -2.8314157836
H -0.8074187555 -0.0312012673 -4.5622966658
H 1.5390985649 0.1242345535 -5.3637602375
H 3.4000970684 -0.7188716335 -3.9412443575
H 0.5682887869 -1.9196553302 -0.9476056973
H 2.5658255401 0.3360839590 -0.2557583808
H 2.6917607278 0.5098946753 2.2175303525
H 3.3377610044 -1.4671902700 3.5753781040
H 3.8703355812 -3.6153379080 2.4470825979
H 3.7359427357 -3.7842367307 -0.0353477268
H -3.5532727366 1.1739721743 3.2476420631
H -0.4417134682 2.8087607833 0.0186893455
H 0.8070742325 1.8427748531 0.8327300910
H 0.1803631823 3.3096318334 1.6035142210
