23
CONF5
C 1.7855327295 0.5616074471 -0.6797584201
C 2.9769650856 1.2707002318 -0.7692836888
C 4.1799397711 0.6979043251 -0.3693994079
C 4.1857628412 -0.6071441447 0.1278650202
C 3.0045385680 -1.3311398439 0.2193923508
C 1.8137077614 -0.7378831545 -0.1856345979
O 0.6861979770 -1.5238405258 -0.0437969835
C -0.4924635709 -1.0705915112 -0.5881574686
C -0.7767781757 -1.2643566178 -1.9423474496
C -2.0126058737 -0.8483537849 -2.4502816997
C -2.9583815737 -0.2488951749 -1.6010244523
C -2.6447757499 -0.0752336849 -0.2492216912
C -1.4181850518 -0.4813799363 0.2553901882
Br 0.5346299013 -2.0997728244 -3.0193445559
Br -3.8618012857 0.7234578223 0.9710631235
Br -4.6381175695 0.3109045846 -2.2700159711
Br -2.4040162493 -1.1048229121 -4.2849248443
Br 5.7908658769 -1.4608745023 0.6938309494
Br 5.7710641168 1.7334083342 -0.5234418055
H -1.1680226188 -0.3452233093 1.3006741349
H 2.9687641390 2.2838212045 -1.1541625832
H 2.9997938829 -2.3464470838 0.5971098020
H 0.8584726425 1.0267940569 -0.9942363032
