83
CONF1
C -2.7715011957 -2.5724558737 1.8899507434
C -2.2876791074 -3.1365175491 3.2205039863
C -3.4854473883 -3.9940383355 3.6519531220
C -3.9591367584 -4.6494953332 2.3486617286
N -3.5216295370 -3.6983416942 1.3086271522
C -3.7535343578 -3.9246569789 0.0039539413
O -4.4214198497 -4.8866755267 -0.3919703729
C -3.1162627440 -2.9827066468 -1.0266187903
C -2.2154427997 -3.8160682784 -1.9615835919
C -1.6635676679 -3.0635729082 -3.1779289988
C -0.5668706214 -3.9058456340 -3.8349403354
C -2.7637537606 -2.7309983554 -4.1862197677
N -2.3967691569 -1.8848914426 -0.3875963540
C -2.2603415108 -0.6327008626 -0.8637320104
O -2.7045126541 -0.1639531540 -1.9031337198
C -1.4329085065 0.1485168710 0.1774904892
N -0.1556074358 0.5497068582 -0.3723042120
C 0.7615511110 -0.2561723592 -0.9439232012
O 0.6731492645 -1.4895197476 -1.0257623564
C 1.9968949934 0.4807316173 -1.4775225160
C 1.6736483982 1.8056400222 -2.1769521793
N 1.2979997682 2.8030467879 -1.1723907530
C 0.5674301401 3.9388189537 -1.7316660409
C 2.3974269912 3.1759165891 -0.2799268781
C 3.3612808898 4.2754728395 -0.8327669266
C 4.4108329178 4.5204392772 0.1990535434
C 5.2243006200 5.5687470958 0.5399909840
Br 5.3417088919 7.2734170658 -0.2468328177
N 6.0338943106 5.2422647764 1.6179298848
C 5.7463804347 3.9479531827 2.0006575314
C 6.2509695555 3.1023614306 2.9891500480
C 5.7035644571 1.8201234757 3.0568422675
C 4.6913675108 1.3705036873 2.1865117555
C 4.1882634404 2.2139614647 1.1974614899
C 4.7345550807 3.4992971393 1.1309039251
C 3.1613649956 1.9389589459 0.1828668232
C 2.9553063931 0.7241203349 -0.3456353633
O -1.2777604962 -0.7779509158 1.2642423083
C -1.7266302508 -2.0838845918 0.8963373675
O -0.6777049006 -2.9804230896 0.8232768347
C -2.1753711902 1.4138642028 0.6476478886
C -1.3949835462 2.1553854968 1.7373180196
C -3.5864305815 1.0911569314 1.1376552944
H -3.4538310993 -1.7300143079 2.0652196244
H -1.4046235802 -3.7610896865 3.0576032782
H -2.0410980799 -2.3474607043 3.9339438916
H -3.2226776607 -4.7372282667 4.4073485865
H -4.2753295769 -3.3548099163 4.0599298384
H -3.4773130182 -5.6188484027 2.1732647871
H -5.0426410576 -4.7952025732 2.3083894004
H -3.9377178904 -2.5370260178 -1.6008936750
H -2.8079229194 -4.6713639027 -2.3046641867
H -1.3875482606 -4.2114935454 -1.3625160318
H -1.2055416631 -2.1291343459 -2.8326097517
H -0.9681521757 -4.8708191307 -4.1682585377
H -0.1528401612 -3.3926983220 -4.7092043467
H 0.2516215845 -4.1020510091 -3.1341271605
H -2.3511758191 -2.1827987647 -5.0398404267
H -3.2240682067 -3.6518126942 -4.5651637612
H -3.5485671768 -2.1098371856 -3.7447745205
H 0.0954825524 1.5501371960 -0.4003870680
H 2.4546724081 -0.2084135647 -2.1946230707
H 0.8299712262 1.6765563679 -2.8639887556
H 2.5479827700 2.1116469130 -2.7763564018
H 0.3199939324 4.6428445919 -0.9299228894
H 1.1273199916 4.4806844854 -2.5112794376
H -0.3671898648 3.5768925409 -2.1733419816
H 1.9355466417 3.6099340822 0.6222004582
H 2.7983678435 5.1890828886 -1.0452010069
H 3.8094384870 3.9340597819 -1.7757830877
H 6.7182989851 5.8545875543 2.0324881987
H 7.0293656769 3.4166824566 3.6761593208
H 6.0688779063 1.1412346502 3.8211992556
H 4.2949800343 0.3667504887 2.3059514288
H 3.5195231347 -0.1295432252 0.0218018386
H -0.0693845097 -2.6040580899 0.1451073943
H -2.2520909907 2.0489360628 -0.2455236490
H -1.9546548368 3.0460306488 2.0377936390
H -0.4036955536 2.4842551316 1.4113389309
H -1.2734420731 1.5185053133 2.6190392100
H -4.1222201824 2.0229007297 1.3393559847
H -3.5498987708 0.5194692963 2.0700195019
H -4.1644415008 0.5249774845 0.4007257645
