41
CONF92
C -3.9728052169 -1.4985759278 3.1728534520
C -4.0995738641 -0.2198460215 2.3452892059
N -3.5250627364 -0.3444366451 1.0066025389
C -4.4342686564 -0.7924494977 -0.0397535239
C -5.0629389877 0.3799359693 -0.8033540115
O -6.0249641353 -0.0727749833 -1.7502879171
C -2.1931528122 -0.1293862663 0.7700760542
C -1.2906571367 0.1563387347 1.8233365127
C 0.0462659554 0.3712386827 1.5658133404
C 0.5611317191 0.3137941456 0.2622990382
C -0.3274510794 0.0337779174 -0.7934426235
C -1.6627240243 -0.1804478066 -0.5484468661
N 1.9249648485 0.5403452116 0.1309601991
N 2.3749504345 0.4976885320 -1.0528585927
C 3.7611888328 0.7150349863 -1.1489551286
C 4.6274123462 0.8859859344 -0.0539972263
C 5.9775704821 1.0849850113 -0.2668098714
C 6.4633544828 1.1145148666 -1.5743078881
C 5.6277414218 0.9467447794 -2.6736689623
C 4.2763614352 0.7446132039 -2.4530577211
N 7.9006967749 1.3262519500 -1.7963792617
O 8.6150663820 1.4682509394 -0.8083565860
O 8.3013130370 1.3488736371 -2.9563114424
H -2.9249440009 -1.7799836905 3.3070284495
H -4.4849784582 -2.3308225817 2.6806763741
H -4.4234139546 -1.3581232150 4.1601422874
H -3.6372037744 0.6282310041 2.8607456629
H -5.1572827752 0.0399770167 2.2241954134
H -5.2379624374 -1.3782499448 0.4204604243
H -3.9170715577 -1.4683922012 -0.7313294382
H -5.6042219860 1.0227203551 -0.1010595679
H -4.2800866402 0.9940905722 -1.2723765133
H -5.5601210674 -0.4788893507 -2.4898247975
H -1.6333935188 0.1918701682 2.8488871229
H 0.7340010230 0.5826602871 2.3783751729
H 0.0557836647 -0.0038227702 -1.8064441304
H -2.3163477583 -0.3712520474 -1.3903981363
H 4.2221735893 0.8571457050 0.9497353779
H 6.6670688467 1.2174379491 0.5576868638
H 6.0438830037 0.9752039477 -3.6725387213
H 3.5896992935 0.6068999520 -3.2812050602
