51
CONF5
C 1.0271587366 -2.5281622207 -0.3296190746
N -0.1284538180 -1.9374232348 0.3362947564
C -0.7402976087 -2.8230973813 1.3309980408
C -1.5942682075 -3.9478231873 0.7325599654
C -2.6732471649 -3.3498695734 -0.1721540880
C -2.0324102190 -2.4459299824 -1.2285777645
C -1.1125469856 -1.3781898003 -0.6065695239
C -1.9099079752 -0.2431270800 0.0559823137
C -0.9891348426 0.7786632108 0.7272138135
N 0.0110155532 1.2977523345 -0.2057662081
C -0.4118132195 1.9841738598 -1.3567684444
C -1.6346829970 2.6639287654 -1.4024278129
C -2.0453912246 3.3117292945 -2.5631485418
C -1.2321106538 3.3252164132 -3.6902443724
C 0.0005218134 2.6801324755 -3.6505209985
C 0.3958908047 1.9955588706 -2.5063810827
S 1.8951194032 1.0401050445 -2.5061572744
C 2.3619996871 1.2961982315 -0.8104479699
C 1.3626456060 1.3515442864 0.1704649792
C 1.7420581001 1.4815928239 1.5124586669
C 3.0891562057 1.4915216007 1.8726699274
C 4.0773243291 1.4306324840 0.8839869689
C 3.7044506214 1.3604989135 -0.4498100179
S 3.6584094462 1.6101801897 3.5512117427
C 2.1169270918 1.5617167857 4.5196854041
H 1.4951064664 -1.7720045553 -0.9697555443
H 0.8050621319 -3.4118138211 -0.9562215712
H 1.7631046187 -2.8292885959 0.4242540716
H -1.3776905381 -2.2159659802 1.9922838908
H 0.0602902071 -3.2320576176 1.9589945122
H -0.9598438346 -4.6305151035 0.1521801587
H -2.0437362917 -4.5400258288 1.5388899914
H -3.3816525836 -2.7757119592 0.4408591315
H -3.2559972369 -4.1410405398 -0.6576641989
H -1.4386477909 -3.0679399160 -1.9110061341
H -2.7996172783 -1.9564390751 -1.8409530322
H -0.5318574887 -0.9179128113 -1.4160073103
H -2.5955523022 -0.6223661182 0.8229591757
H -2.5329681121 0.2301343419 -0.7107818385
H -1.5735092728 1.5823705337 1.2013440730
H -0.4409451577 0.2539327940 1.5107266266
H -2.2728158139 2.6849296356 -0.5268450560
H -3.0045217883 3.8190277952 -2.5759150592
H -1.5469571227 3.8374486354 -4.5927408819
H 0.6544502335 2.6849995226 -4.5167685112
H 0.9735830043 1.5844390011 2.2657225094
H 5.1276522507 1.4472518503 1.1551276485
H 4.4647848227 1.3249983795 -1.2235712221
H 1.4902307220 2.4359442608 4.3226101360
H 1.5587693641 0.6405399930 4.3296762384
H 2.4248651184 1.5795420606 5.5676692143
