52
CONF22
C 1.3990528738 3.3326459329 0.9815774889
C 1.8249875450 2.2112833086 0.0611493240
C 3.1614938901 2.4775132012 -0.6352185182
C 3.4885228127 1.3582489798 -1.6193084223
C 2.3272653095 1.1416710855 -2.5976314026
C 0.9593242529 1.0921978843 -1.9025637265
O 0.7783606064 2.0869046611 -0.9403327027
O 0.8256081198 -0.2427090216 -1.3481143632
C -0.4396346866 -0.5838584734 -0.9453247295
C -0.6943729042 -0.8457896866 0.3789794153
O -1.9441337503 -1.2067852892 0.7892134811
C -2.9838483998 -1.2986050614 -0.0876330670
C -4.2208700138 -1.6248534964 0.4461556548
C -5.2915583702 -1.7481029147 -0.4406234247
C -5.1388879050 -1.5596532084 -1.8193519058
C -3.8912045877 -1.2369373955 -2.3268289017
C -2.7754524812 -1.0911533919 -1.4566427716
C -1.4685463147 -0.7434189528 -1.9498043192
O -1.2370563700 -0.5798820575 -3.1786382301
O -3.7331787941 -1.0532443482 -3.6482572423
O -6.5393091280 -2.0614297713 -0.0120806640
C 0.2455780993 -0.7829953997 1.4895398976
C 1.6195557810 -0.9791134664 1.2797212304
C 2.5160985990 -0.8138976863 2.3180383069
C 2.0582949117 -0.5096914664 3.6100938194
C 0.6911381889 -0.3647746147 3.8335501192
C -0.2094953097 -0.4917626904 2.7859063511
O 2.9252745448 -0.3415045275 4.6401382815
O 3.8722678007 -0.9176692639 2.1595909057
O 2.3599901589 2.2606406107 -3.4847425737
O 3.7575676697 0.1776617601 -0.8462270039
O 4.2152383641 2.6447154710 0.3111242220
H 2.1336538988 3.4578988265 1.7801934325
H 1.3161564987 4.2736309820 0.4274118084
H 0.4297345263 3.1003482623 1.4320789108
H 1.8948204216 1.2702283758 0.6200798214
H 3.0863465085 3.4178590755 -1.1930249406
H 4.3784509142 1.6364627294 -2.2000984168
H 2.4779384106 0.1984896553 -3.1419730782
H 0.1650748399 1.2515313566 -2.6388776618
H -4.3381711225 -1.7802652394 1.5129628128
H -5.9902414843 -1.6657670779 -2.4817582833
H 1.9993277339 -1.2179660397 0.2958642388
H 0.3488739723 -0.1223339614 4.8342967111
H -1.2658394565 -0.3387216987 2.9704649621
H 3.8298888848 -0.4351361345 4.3046887673
H 4.0867010578 -0.8111007431 1.2194736563
H 1.7360012188 2.0955067312 -4.2032950169
H 4.2002894755 -0.4596738619 -1.4203766605
H 4.4328307569 1.7641216864 0.6491053686
H -6.5398264257 -2.1706897250 0.9491486004
H -2.7636088842 -0.8402813813 -3.7766101472
