44
CONF5
C 4.1075363721 -0.0546670628 -0.3888830587
C 3.1200821575 -0.4393230115 -1.4361297168
N 1.9298473346 -0.8889678692 -1.0169335452
C 1.0701448900 -1.2265882333 -1.9884527827
N 1.3140697941 -1.1667813349 -3.2996902301
C 2.5363602542 -0.7160116568 -3.5944211617
N 3.4762723083 -0.3321984123 -2.7203541293
O 2.7878068042 -0.6593203659 -4.8974864692
C 4.0919155062 -0.1801410275 -5.3169074403
N -0.1850236156 -1.6843777557 -1.6473386394
C -0.8064584531 -1.8101937832 -0.4023910120
O -1.9389657713 -2.2609642829 -0.3222942362
N -0.0660407590 -1.3786156022 0.6713815546
S -0.5784556247 -1.5885964225 2.2788734167
O -0.8886217491 -3.0039871423 2.5093997880
O 0.4966101816 -0.9588673889 3.0608732522
C -2.0955627551 -0.6368234178 2.4242191078
C -3.2383098283 -1.3795076770 2.7252776399
C -4.4418660281 -0.7269581323 2.9462248870
C -4.4863395673 0.6623121975 2.8752688903
C -3.3412438355 1.3850396059 2.5666776690
C -2.1118850913 0.7633315835 2.3178100163
C -0.9131270078 1.6315382532 1.9970204834
C -1.1402837906 2.6391128304 0.8592828384
C -1.1556235966 2.0144836799 -0.5084639901
F 0.0436309595 1.4622424942 -0.8369088914
F -2.0799661384 1.0248626909 -0.6330182524
F -1.4336910962 2.9304535345 -1.4714230855
H 4.9469046913 0.4855466732 -0.8257682927
H 3.6218543636 0.5501062441 0.3815062841
H 4.4818577294 -0.9621794280 0.0990594378
H 4.2448019779 0.8462236124 -4.9772303097
H 4.8775576269 -0.8282407035 -4.9233696067
H 4.0643500952 -0.2255154008 -6.4046287064
H -0.7778889114 -1.9484221351 -2.4244737544
H 0.8992615335 -1.0501833877 0.4941518928
H -3.1771889160 -2.4590432065 2.7853015373
H -5.3325326541 -1.3002394016 3.1791133922
H -5.4165492590 1.1887124857 3.0631171385
H -3.3995982200 2.4682062201 2.5275680013
H -0.0241315381 1.0408826007 1.7800899475
H -0.6752754809 2.2125379289 2.8952835323
H -2.0776648779 3.1885558891 0.9741185784
H -0.3285710309 3.3725657020 0.8538918324
