20
CONF1
C 3.1706983269 -0.3852449563 -0.0988918647
C 3.2009030509 1.0689216089 -0.5264190516
O 2.4422131293 1.5818988987 -1.3146681836
O 4.2256962547 1.7003908784 0.0714046066
O 1.9891057161 -1.0400870570 -0.5511836818
C 0.8339177434 -0.6965197211 0.0597290983
N 0.8599503524 0.1749929816 1.0650592256
C -0.2859970411 0.4740548959 1.6341933121
C -1.5136497906 -0.0412196187 1.2807757378
C -1.5721927567 -0.9756204213 0.2165805567
C -0.3400681771 -1.2906528752 -0.3926686571
Cl -0.3020072688 -2.4291059915 -1.7160338826
N -2.7321357470 -1.5263598666 -0.1781291140
Cl -2.9687530191 0.4364964690 2.1130312426
F -0.2192320712 1.3599140363 2.6426007563
H 3.2919959964 -0.4621913679 0.9853715333
H 4.0005920045 -0.9053360515 -0.5867462250
H 4.2550462215 2.6171343680 -0.2524721867
H -2.7576910065 -2.1690630505 -0.9516879756
H -3.5985646445 -1.2665605841 0.2620636741
