40
CONF20
C 3.7273687446 -0.0678395927 1.1875171527
O 3.4565980027 -1.2923963003 1.9126585416
C 2.3297380960 -1.9478167772 1.6259356433
C 2.0730839838 -3.1248864772 2.3295073393
C 0.8870413790 -3.7720392333 1.9983229131
N 0.0347761476 -3.3077504605 1.0698219611
C 0.3951404683 -2.1789383061 0.4716226990
N 1.5054418456 -1.4638411332 0.6946327804
N -0.5072421352 -1.7146958849 -0.4828483483
C -0.4856877164 -0.5839838282 -1.2838885935
O -1.4425244256 -0.2909396800 -1.9897771538
N 0.6774793134 0.1604786369 -1.2348913607
S 0.7379499481 1.7182885277 -1.9009994473
O 1.9661503492 2.2796019741 -1.3305609420
O 0.5775620266 1.6337537587 -3.3547574821
C -0.6518323277 2.5446064117 -1.2361675441
C -0.9081608551 2.8696339760 0.0941634762
N -2.0942080122 3.4515296380 0.2704012086
C -2.6431897080 3.5045037353 -0.9598123484
N -1.7960463771 2.9443800819 -1.9242986189
C -2.1533715251 2.8655934945 -3.2432204496
C -3.3692019435 3.3630359839 -3.6224830187
C -4.2409552029 3.9468955260 -2.6805782499
C -3.8824498909 4.0188437305 -1.3550605247
Cl 0.1396698659 2.5412750906 1.4222471129
O 0.4687886553 -4.9138116400 2.5598077247
C 1.3087492910 -5.5147027682 3.5684272985
H 2.9387906435 0.6671493736 1.3711676501
H 3.8137247223 -0.2693515523 0.1163278560
H 4.6771654624 0.2882115164 1.5841816134
H 2.7711079042 -3.4801235255 3.0731341321
H -1.3486591058 -2.2680057053 -0.5817307565
H 1.3540388295 -0.0782087265 -0.4897524852
H -1.4437431789 2.4094984655 -3.9171641934
H -3.6474249610 3.2976568841 -4.6671711273
H -5.1983090927 4.3382973546 -3.0055190051
H -4.5249257210 4.4555391407 -0.5998310262
H 0.7865465092 -6.4197455018 3.8751953154
H 2.2871281318 -5.7693279027 3.1495366207
H 1.4238928590 -4.8403677918 4.4226087304
