42
CONF4
C 0.9323589288 -3.5128323084 3.1306608872
C -0.0554462734 -2.3503733201 3.0768566000
C 0.3301763692 -1.2972226155 2.0415486244
C 0.4278201464 -1.8913917919 0.6289827346
O 1.5006449128 -2.2542331793 0.1660958702
N -0.7688879923 -2.0148615601 -0.0052192710
C -0.8318021320 -2.2543407758 -1.4507994424
C -0.6812409582 -0.9582455895 -2.2100923209
C -1.7734146417 -0.1010604404 -2.3580374772
C -1.6214165809 1.1396435816 -2.9676747275
C -0.3733742536 1.5312791595 -3.4436396428
C 0.7175577247 0.6777291689 -3.3089211959
C 0.5668699824 -0.5588915221 -2.6902657924
O -0.6795859351 -0.2739362228 2.1102140405
C -0.4651259794 0.8898984413 1.4163587196
C 0.6816718090 1.1708375138 0.6750245421
C 0.8050640071 2.4077871893 0.0382539398
C -0.2274792381 3.3305934338 0.1387284283
C -1.3814626624 3.0490457604 0.8511125106
C -1.4979472997 1.8276166896 1.4934128815
F -0.1108723703 4.5344958778 -0.4554717187
C 2.0759387449 2.7726138463 -0.6794255230
F 2.7663176670 3.7165692860 0.0094970091
F 1.8552845667 3.2760825014 -1.9135667191
F 2.8954901858 1.7080641128 -0.8217384738
H 0.9684972809 -4.0542626663 2.1817204583
H 1.9457557613 -3.1613629163 3.3473480793
H 0.6419417524 -4.2164919327 3.9151214516
H -0.1104958168 -1.8477167455 4.0489370464
H -1.0632282604 -2.7134084233 2.8435324966
H 1.3156537143 -0.8781883929 2.2825846372
H -1.5394483208 -1.5068679393 0.4070900089
H -0.0283935116 -2.9501810304 -1.7031544147
H -1.7906636293 -2.7325318118 -1.6767252266
H -2.7516160338 -0.4067376672 -1.9930599809
H -2.4763470551 1.7998939777 -3.0745804083
H -0.2491691685 2.5014746576 -3.9130476153
H 1.6926916195 0.9831286079 -3.6735450380
H 1.4218617313 -1.2156241237 -2.5614794413
H 1.4862895566 0.4544852403 0.5721137683
H -2.1676876385 3.7933112190 0.9038586168
H -2.3827809155 1.5862121124 2.0720834069
