44
CONF94
C -0.5088613342 -3.1498088160 -0.7150837684
C -1.5380255823 -2.0087671865 -0.7904752653
C -2.9430176315 -2.5984028238 -0.6847190433
C -1.3279942675 -1.2225526712 -2.0976643437
C -0.0750485997 -0.3678656708 -1.8513611971
C -0.0304640038 -0.1133899073 -0.3173932609
C -0.0108940055 1.3854917485 0.0360359251
C 1.2582365964 2.0552540251 -0.4242217836
C 1.2679313803 2.9054130778 -1.5327491181
C 2.4427985321 3.5090547567 -1.9764293379
C 3.6217744009 3.2540630017 -1.2901694098
Cl 5.1188081918 4.0131886718 -1.8363980950
C 3.6523453547 2.4193731705 -0.1790631947
C 2.4668594901 1.8267839742 0.2427841808
C -1.2499166213 -0.8898210786 0.2741575691
O -2.3934817939 -0.0389452597 0.4350936013
C -0.9953778734 -1.4824424590 1.6627708711
N -0.5444583460 -0.5165571046 2.6591989628
C 0.7209673287 -0.2814460298 3.0585206861
N 0.7502317106 0.7034320753 3.9501579105
C -0.5656971359 1.0378875052 4.0632893090
N -1.3892996641 0.3253576599 3.3028564171
H 0.5221502806 -2.7855893487 -0.6690391094
H -0.6852937569 -3.7919592308 0.1532711807
H -0.6031903656 -3.7742555089 -1.6094672756
H -3.0836294864 -3.3469706557 -1.4723506153
H -3.7128478957 -1.8317275210 -0.8015171575
H -3.0960738475 -3.0979250047 0.2782812231
H -2.1984427294 -0.5822651629 -2.2924624582
H -1.2301270482 -1.8911191892 -2.9588307986
H -0.1108490397 0.5716721795 -2.4102308796
H 0.8254676392 -0.8968706951 -2.1767471053
H 0.8802509507 -0.5638254852 0.0954336042
H -0.1183512123 1.5174951606 1.1178574632
H -0.8671278477 1.8807601564 -0.4327628382
H 0.3412156265 3.1063110305 -2.0627839305
H 2.4358436633 4.1674374268 -2.8379131200
H 4.5812710733 2.2380567272 0.3499878983
H 2.4879402275 1.1781947054 1.1142275418
H -2.6101864087 0.3559470422 -0.4191020105
H -0.2112840475 -2.2378584858 1.6007795129
H -1.9097504137 -1.9515168208 2.0377442315
H 1.5661237625 -0.8445429080 2.6835315700
H -0.9305254519 1.8152504153 4.7229555795
