47
CONF239
C -7.4141453415 -0.4283050613 2.4207172119
O -6.7180052889 -1.1832260862 1.3877037581
P -5.1282298647 -1.0939101400 1.2701723281
S -4.0476360103 -1.5222559733 2.8219285869
O -4.8263262298 -2.0555881786 0.0361074495
C -5.5349413309 -1.8805463531 -1.2318423947
O -4.9805473879 0.4343362218 0.7165015884
C -3.7483992592 1.0914194413 0.7017776909
C -3.5735548795 2.1673829440 1.5591231253
C -2.3657799338 2.8578728575 1.5414845949
C -1.3548636779 2.4763441793 0.6565674399
C -1.5554043186 1.4018464831 -0.2144795066
C -2.7524049678 0.6979182223 -0.1856278214
S 0.1431002315 3.4534919817 0.6175966891
C 1.4187831577 2.2132360229 0.4308434140
C 2.4716721040 2.4740051826 -0.4475203061
C 3.5221835603 1.5685405259 -0.5686018525
C 3.4880499539 0.3965553209 0.1740376936
C 2.4441844738 0.1186566263 1.0485872837
C 1.4142794942 1.0386963254 1.1891673840
O 4.5333676383 -0.5280542535 0.1053337452
P 4.8575626732 -1.3335462640 -1.2668014537
S 3.3410796549 -1.9119645836 -2.3272774543
O 5.7800765899 -2.4428376001 -0.5735389804
C 6.3848086257 -3.4676590496 -1.4149629008
O 5.8294320791 -0.3961517618 -2.1308304860
C 7.0353586626 0.1559304173 -1.5161458001
H -7.2472924854 0.6424572545 2.2782288650
H -7.0676787458 -0.7434470560 3.4083299329
H -8.4698750536 -0.6660150357 2.2961233747
H -5.0196734532 -2.5254198033 -1.9426136005
H -6.5752118724 -2.1909764183 -1.1173984893
H -5.4767328617 -0.8385776037 -1.5565617073
H -4.3665795846 2.4460057165 2.2447201846
H -2.2096875963 3.6866192498 2.2243898652
H -0.7797610348 1.1105441213 -0.9147292586
H -2.9163226944 -0.1382522950 -0.8573091904
H 2.4756954314 3.3822415827 -1.0411583482
H 4.3457701444 1.7705645302 -1.2449764685
H 2.4508888697 -0.8040206427 1.6188107877
H 0.6040194344 0.8359816507 1.8814990666
H 5.6043739457 -4.0904922799 -1.8594187123
H 6.9976444804 -3.0080052435 -2.1954652671
H 7.0094229567 -4.0603667509 -0.7478929723
H 7.5196012291 0.7381329439 -2.2991452672
H 6.7654840606 0.8016440051 -0.6764259510
H 7.6922132994 -0.6508051559 -1.1819818640
