46
CONF71
C -3.4342569731 -0.1777577118 -2.6668058921
C -3.7983687466 -0.3107230394 -1.2061823491
C -2.8662657623 -0.9843047543 -0.2412074941
C -3.0978807976 0.5422897525 -0.1467721344
C -2.0685319826 1.5614211502 -0.4176525257
O -2.1164603141 2.6873013345 0.0486659467
O -1.0645672640 1.1373257074 -1.2148122558
C -0.0067946331 2.0979130444 -1.4729441505
C 0.8984912683 2.2705882656 -0.2824226923
C 1.2478021123 1.1707619652 0.4999385772
C 2.1095256079 1.3473491141 1.5771344314
C 2.6316717704 2.5964520613 1.8920152207
C 2.2752953620 3.6898605199 1.1069553344
C 1.4126931230 3.5315656008 0.0262249928
O 2.4128748512 0.2899972364 2.4231871111
C 2.9987392003 -0.8462696476 1.8971600652
C 3.7168083352 -0.8475886486 0.7030365296
C 4.3143897567 -2.0316191880 0.2766122480
C 4.2082673663 -3.1971084696 1.0314592724
C 3.4974289169 -3.1735304592 2.2307993690
C 2.8882197166 -2.0027768131 2.6675114986
C -1.5893183491 -1.5707283228 -0.6703487205
C -0.7381438428 -2.1909163226 0.1460617074
Cl 0.7282616746 -2.9443063994 -0.4202289500
Cl -0.9662147077 -2.3009640703 1.8706912297
C -5.2803819115 -0.5189602999 -0.9755015161
H -4.0018808777 0.6467590064 -3.1107294084
H -2.3749415738 0.0141241431 -2.8339547455
H -3.7098611518 -1.0980280351 -3.1934672184
H -3.3414461425 -1.5056257637 0.5859843568
H -3.7329474345 0.8491337860 0.6777705791
H -0.4405189005 3.0541098291 -1.7753040668
H 0.5373985339 1.6637845022 -2.3163414819
H 0.8493692326 0.1850220462 0.2795511596
H 3.2984510144 2.7010671669 2.7412866248
H 2.6692748522 4.6724967366 1.3461749987
H 1.1288760218 4.3902708991 -0.5748052284
H 3.8083986685 0.0583370597 0.1141715907
H 4.8723868624 -2.0349505319 -0.6548637821
H 4.6769304957 -4.1143487143 0.6904977687
H 3.4078979229 -4.0746328068 2.8297924285
H 2.3271446968 -1.9714694369 3.5958394104
H -1.3156705216 -1.5394580665 -1.7195329111
H -5.5104451677 -0.6271222702 0.0879770412
H -5.6125469689 -1.4243621664 -1.4952106173
H -5.8491520377 0.3296210216 -1.3703877342
