38
CONF28
O 1.7318542399 -0.0569817062 0.7861923875
P 0.8721690578 -1.0938689145 0.1756292582
O 0.6179002968 -2.4358872314 1.0145850792
C 0.0799253289 -2.3156303284 2.3131670834
C 0.9286578231 -2.0606307558 3.3806590059
C 0.3810606507 -1.9868216106 4.6595195866
C -0.9873371245 -2.1671710490 4.8515957400
C -1.8166931699 -2.4256808882 3.7621572393
C -1.2852967592 -2.5015179619 2.4768044584
O 1.4034715454 -1.8126552042 -1.1574480322
C 1.4810371249 -1.0486866021 -2.3395342044
C 2.4895499525 -0.1075073990 -2.4916887303
C 2.5493837487 0.6128701044 -3.6830368631
C 1.6192894559 0.3822194257 -4.6942562747
C 0.6225788685 -0.5759331174 -4.5191293495
C 0.5450711006 -1.3003497221 -3.3323440671
O -0.6076890629 -0.5864402467 -0.2104232202
C -0.9850292633 0.7625106862 -0.0854289385
C -1.3571578243 1.2515680988 1.1582344414
C -1.7836461005 2.5740918421 1.2531234360
C -1.8347587756 3.3804048950 0.1175334921
C -1.4581743070 2.8638582730 -1.1206169551
C -1.0268421288 1.5436782471 -1.2308675187
H 1.9909907531 -1.9256262917 3.2096020663
H 1.0299194473 -1.7889318425 5.5065704257
H -1.4066668946 -2.1086535565 5.8505942606
H -2.8823709513 -2.5692143157 3.9084028805
H -1.9114439007 -2.7002335152 1.6137854153
H 3.3306787492 1.3538244886 -3.8181349325
H 1.6730471184 0.9462515444 -5.6195754207
H -0.1024443952 -0.7603993739 -5.3052671500
H -0.2275390190 -2.0440818328 -3.1695165217
H -1.3110474483 0.6065387127 2.0302278520
H -2.0766594990 2.9719797679 2.2193751763
H -2.1684408367 4.4097617428 0.1973938420
H -1.4971441477 3.4876888411 -2.0078342729
H -0.7288830554 1.1220625546 -2.1856131323
H 3.2084420826 0.0547576580 -1.6962785309
