32
CONF1
C 3.3412995209 1.4808375426 -2.3766100861
C 2.2733039783 1.0555425667 -1.4092506991
C 1.0709439477 1.7658507883 -1.3118962551
C 0.0866965782 1.3888905199 -0.4077301821
C 0.3000016344 0.2924397009 0.4267186002
C 1.4977653243 -0.4167488571 0.3624359862
C 2.4671159723 -0.0383521965 -0.5601879388
N -0.7266786337 -0.1030651972 1.3541048403
S -1.1516604812 0.8754774697 2.6568172875
C 0.1208504955 0.4413073093 3.9212338160
F 1.3647255821 0.8115837116 3.5304025257
Cl 0.1908583929 -1.3111155036 4.3045986768
Cl -0.3411933542 1.4066355199 5.3683827572
S -1.5572827262 -1.6202174016 1.0533315067
O -2.5923009415 -1.6958020276 2.0844444249
O -0.5484332405 -2.6757342267 0.9281906629
N -2.3075598660 -1.4748883381 -0.4256618799
C -1.5008297012 -1.6703592656 -1.6446471612
C -3.3068602396 -0.3991137613 -0.5265983753
H 4.0000768194 2.2258537803 -1.9145125939
H 2.9063289889 1.9370804260 -3.2697161506
H 3.9624035868 0.6335772166 -2.6781024238
H 0.8993540544 2.6193348431 -1.9617558197
H -0.8456155539 1.9411085660 -0.3434701368
H 1.6624065122 -1.2586453753 1.0249198796
H 3.3959459424 -0.5991714206 -0.6146753756
H -0.7649154097 -2.4581538009 -1.4852739195
H -2.1898002310 -1.9857271974 -2.4337738467
H -0.9974556100 -0.7467453165 -1.9555778456
H -3.9615606335 -0.6434286906 -1.3675304267
H -3.9081934046 -0.3554452697 0.3828022091
H -2.8397369706 0.5771942930 -0.7114122737
