55
CONF9
C -3.2320533282 0.8598957141 -1.1656005547
C -2.5864477517 0.2235389887 0.0944552788
C -3.1650612559 0.9155100462 1.3447434145
C -4.6492626489 0.6323888414 1.5602163265
C -4.9028235226 -0.8561369093 1.6547437540
O -5.8363753543 -1.3256683983 2.2897112372
C -4.0022257483 -1.7067303475 0.8709428147
C -2.9852580565 -1.2451319879 0.1143482792
C -2.2841364155 -2.1694850020 -0.8365527241
C -0.7724652096 -1.9696942722 -0.8247258847
C -0.4293780371 -0.5054128569 -1.1188422711
C -1.0233482424 0.4324119403 -0.0323480858
C -0.1527689587 0.3381082752 1.2436337139
C 1.3192530300 0.6443498653 0.9256212742
C 1.9765315830 -0.2455528457 -0.1326262048
C 1.0666749544 -0.2811079935 -1.3830303013
C 1.3523838360 1.0408423971 -2.1347762009
C 2.7425786818 1.5248733755 -1.6658290475
C 3.2636332512 0.4130304800 -0.7372679929
C 4.2546335349 0.9112877562 0.2837538058
O 4.0663020893 1.9053926934 0.9651592131
C 5.5455308897 0.1386531339 0.4448347743
O 6.3581931611 0.6567973457 1.4604262001
C 2.3181944630 -1.6173228337 0.4522202683
O -0.5371531227 1.2463482281 2.2842758990
H -4.3118440364 0.6951596003 -1.1776459345
H -2.8339876498 0.4449826470 -2.0937462446
H -3.0474235673 1.9395105292 -1.1692934399
H -2.9801919179 1.9939814322 1.2850743683
H -2.6318710920 0.5599628815 2.2261104752
H -5.0134256840 1.1033814604 2.4776446625
H -5.2710219469 1.0205101531 0.7422732736
H -4.2605080748 -2.7633845775 0.8546066321
H -2.5535909223 -3.2061675947 -0.6127395934
H -2.6555854752 -1.9598709606 -1.8517523422
H -0.3035513603 -2.6162853816 -1.5758505579
H -0.3857800504 -2.2861443835 0.1479775063
H -0.9251712745 -0.2650195596 -2.0698716664
H -0.9087841235 1.4723171107 -0.3778357945
H -0.2574196985 -0.6536270128 1.7011621187
H 1.3611322393 1.6923895002 0.5966364476
H 1.8787715219 0.6021181772 1.8658011147
H 1.4130984625 -1.1115700147 -2.0154539720
H 0.5887907623 1.7905213428 -1.9055822853
H 1.3159162777 0.8792026170 -3.2158224268
H 3.4326552815 1.6971299137 -2.4962850541
H 2.6728022086 2.4610172263 -1.1057770144
H 3.7520402007 -0.3692819133 -1.3360482250
H 6.0590186358 0.1644395009 -0.5346617592
H 5.3018370714 -0.9207957685 0.6328420670
H 5.8942196005 1.4492478233 1.7808863725
H 1.4603817281 -2.0876913648 0.9353073493
H 3.0949080571 -1.5228683939 1.2190773727
H 2.6840136824 -2.2982358845 -0.3243735557
H -0.2745815728 2.1338854669 2.0111480129
