59
CONF19
C 3.6835783681 3.8073466601 -2.4724363708
C 3.1434904344 2.9688200291 -1.3153783027
C 4.0611048921 1.8013815187 -0.9528630609
C 3.5219711716 0.9616883124 0.2035581391
C 4.4160922351 -0.2291220455 0.5424543914
C 3.8895803517 -1.0544118873 1.7151891041
O 4.8946671305 -2.0590470576 1.9918891786
C 2.5741432841 -1.6935366473 1.4002786570
C 1.4315658456 -1.4029556398 2.0244698779
C 0.0877693690 -1.9151773692 1.6222669435
C -0.7904476831 -2.3920699155 2.8052824094
O -1.3747598095 -3.6560133677 2.3972083277
C -1.8745869794 -1.3202731373 2.9505432872
C -2.1574097387 -0.9041822578 1.5076626911
O -2.9760566445 -1.8848624178 0.8319919367
C -0.7396938737 -0.7869250319 0.9230017736
C -0.6040043755 -0.8175815198 -0.5974038191
C -1.3279456165 0.2918287632 -1.3015916394
C -2.0860166691 0.1105867887 -2.3837563502
C -2.8187841224 1.1658843231 -3.1567380240
C -4.2983959914 0.8173338148 -3.4031986064
C -5.2103752744 1.0523569296 -2.1895708127
C -4.7812728686 0.3320901882 -0.9386748167
O -4.6484837119 -0.9905243806 -1.1126584076
O -4.5906658358 0.8838465671 0.1331529915
H 3.0099978512 4.6347438363 -2.7172075029
H 3.8066050212 3.1952761406 -3.3729718916
H 4.6621419772 4.2322054499 -2.2222569543
H 2.1505400743 2.5766644476 -1.5746712530
H 3.0037592445 3.6046425202 -0.4310296609
H 4.1966716784 1.1603253227 -1.8354339907
H 5.0569010391 2.1880351013 -0.6940560138
H 2.5164082657 0.6014573495 -0.0512598467
H 3.4067765800 1.5961893632 1.0936803975
H 5.4238696625 0.1222142782 0.7993456480
H 4.5141057231 -0.8865127166 -0.3322427232
H 3.7731794690 -0.3968996490 2.5918989085
H 4.5471909485 -2.6224988710 2.6952926917
H 2.5796416338 -2.4073979131 0.5738562245
H 1.4436411639 -0.6742446336 2.8386853488
H 0.2169570504 -2.7583443269 0.9337257992
H -0.2080700582 -2.5410912001 3.7229186825
H -1.9436757937 -3.9592760609 3.1179520485
H -1.4631294140 -0.4608483578 3.4937480062
H -2.7596858125 -1.6758319260 3.4876158934
H -2.7101650117 0.0333199521 1.4233112405
H -2.6333005520 -2.7664551885 1.0576167156
H -0.3565160618 0.1802912323 1.2814377170
H -0.9502897748 -1.7846673836 -0.9813460972
H 0.4727102290 -0.7565856245 -0.8217938833
H -1.2082437209 1.2968536925 -0.8905924503
H -2.1979892477 -0.9053177684 -2.7693652347
H -2.3380581319 1.2745620197 -4.1392419706
H -2.7350574062 2.1375011492 -2.6531182797
H -4.3741248216 -0.2264524988 -3.7282792077
H -4.6828854311 1.4342825374 -4.2221661775
H -5.2581773142 2.1173926124 -1.9489570406
H -6.2266485989 0.7170638514 -2.4330621348
H -4.1601437821 -1.3670778521 -0.3333719762
