47
CONF63
C -2.0591454621 1.9340716538 2.9532684024
C -1.7207299488 2.3974895599 1.5547846677
C -2.6277397421 3.3708993114 0.8355158917
C -2.6483486680 1.8955510483 0.4443531157
C -2.0909738621 1.5038437815 -0.8570439503
O -1.4087433009 2.1743787885 -1.6010701047
O -2.4264121484 0.2036964156 -1.1328485854
C -1.7971711117 -0.3339210281 -2.3202431445
C -2.5495113651 -1.5475724775 -2.6409814652
N -3.1094898734 -2.5186057581 -2.9180002678
C -0.3317856037 -0.6503819359 -2.0917809073
C 0.6067993974 -0.3247859423 -3.0670981321
C 1.9493860120 -0.6205436604 -2.8443170970
C 2.3583514676 -1.2290494668 -1.6629266228
C 1.4012006014 -1.5535457506 -0.7009376853
C 0.0550038721 -1.2737510390 -0.9078950998
O 1.7337145555 -2.0971999515 0.5214503482
C 2.8101012084 -2.9720909187 0.5969773078
C 3.6990279734 -2.7971196936 1.6511669145
C 4.7468854921 -3.7013672853 1.8095026193
C 4.9045220380 -4.7610460612 0.9190441520
C 4.0014389480 -4.9212712976 -0.1313432843
C 2.9446271756 -4.0311698053 -0.2972987096
C -3.8205313932 3.9428651362 1.4646975178
C -4.2250494965 5.2068399995 1.3385055669
Cl -5.6626622346 5.8071397516 2.1257481492
Cl -3.3922064954 6.4111362092 0.3933795788
C -0.2362856830 2.5144244010 1.2963122610
H -1.5382118758 0.9942549495 3.1635046321
H -3.1283127672 1.7665439803 3.0963218586
H -1.7227309606 2.6790986015 3.6826798729
H -2.1164552343 4.0043353308 0.1170590342
H -3.4867862097 1.2975668980 0.7850559341
H -1.9039926775 0.3696674054 -3.1542152787
H 0.2943560899 0.1655992880 -3.9833934311
H 2.6908777017 -0.3578590429 -3.5917972813
H 3.4065357784 -1.4432318614 -1.4857094699
H -0.6704020205 -1.5333397868 -0.1436842831
H 3.5632161134 -1.9635997326 2.3323738460
H 5.4443443919 -3.5701746621 2.6308782557
H 5.7246234755 -5.4604374490 1.0436086511
H 4.1124694429 -5.7501545759 -0.8234577265
H 2.2330141561 -4.1558352094 -1.1070758751
H -4.4375839283 3.2994136810 2.0844251033
H 0.2054632229 3.1856890567 2.0401159495
H -0.0184128253 2.9095361504 0.3029387351
H 0.2437163722 1.5340132903 1.3964958316
