43
CONF37
C 3.8393869503 3.5297929507 -3.9709680064
O 3.3401493848 3.2204671929 -2.6643617664
C 3.1673932984 1.9055235753 -2.3379026454
C 2.6711600554 1.6765454901 -1.0530441597
C 2.4790008975 0.3511743681 -0.6922733214
C 2.7643419894 -0.7349708541 -1.5582455107
C 3.2635056979 -0.4801905300 -2.8335362874
C 3.4615442504 0.8409348699 -3.2172858874
N 2.4748215770 -1.9408613238 -0.9274362156
C 2.0211009777 -1.5782737096 0.2441842319
N 2.0151335338 -0.2305124030 0.4673656433
S 1.4614902000 -2.6973324233 1.5464180673
O 1.2612189604 -1.7904422629 2.7586483842
C -0.2451755921 -3.0498998147 0.8024266392
C -1.0595814932 -1.8090420795 0.6606388921
N -0.9079159092 -1.1538468533 -0.5009178707
C -1.5676651166 -0.0072079242 -0.6717298033
C -2.4255007492 0.5499595175 0.2744762838
C -3.1312130912 1.8499245408 0.0374680349
C -2.5921214282 -0.1669882213 1.4634589499
O -3.4204292007 0.3578035561 2.4277718768
C -4.7331345616 -0.2427355015 2.4468613176
C -1.8961922799 -1.3596611399 1.6975416579
C -2.0559340901 -2.1125168506 2.9879362915
H 3.8948378722 4.6179755939 -4.0132678631
H 4.8388192352 3.1057903667 -4.1237888917
H 3.1592818669 3.1666795180 -4.7504376756
H 2.4508323639 2.5058266857 -0.3903541517
H 3.4907608225 -1.2929767744 -3.5154337051
H 3.8469245914 1.0442902321 -4.2081515189
H 1.6854537337 0.2210744451 1.3089327620
H -0.0229884952 -3.5058498553 -0.1662334067
H -0.6734687005 -3.7922473263 1.4794999997
H -1.4163471075 0.5036560882 -1.6225841385
H -2.8418137830 2.5919686916 0.7886104638
H -4.2172846114 1.7325997453 0.1065548026
H -2.8865081793 2.2418760028 -0.9523376630
H -4.6708384230 -1.3168195761 2.6544792680
H -5.2864414593 0.2552638726 3.2444468548
H -5.2395771502 -0.0850036810 1.4874252619
H -1.0889519099 -2.4545217095 3.3602384884
H -2.5101768851 -1.4759955965 3.7489487286
H -2.6978993600 -2.9912302741 2.8516848754
