51
CONF44
C -0.9480867510 0.4738099719 1.7353957503
C -0.1998124328 -0.8257048072 2.0045632459
N 0.2364249745 -1.4444744323 0.7455296345
C -0.9310554281 -1.7697154897 -0.0825757482
C -1.7239637915 -0.5141729184 -0.4286412273
C -2.1713157571 0.2076797688 0.8609815464
C -2.9154361378 1.4770724266 0.4997734191
O -2.3661120091 2.5714888730 0.5782761242
C -4.3177430508 1.3808473102 -0.0029597069
C -4.9248083329 2.5430738869 -0.5024286657
C -6.2270144771 2.5242718468 -0.9761716169
C -6.9156639500 1.3203007281 -0.9409031778
C -6.3589848803 0.1473750655 -0.4584153669
C -5.0516857863 0.1861561517 0.0104337347
F -8.1880518363 1.2914050113 -1.3977201203
C 1.0497612018 -2.6359482241 0.9858143141
C 2.4805219718 -2.3088615447 1.4147932433
N 3.1831070540 -1.5017845055 0.4030248867
C 3.2932011204 -0.1191534253 0.6031430825
O 2.8955340295 0.4069215599 1.6385966418
C 3.9177978756 0.6320029718 -0.4871778271
C 4.0576891662 2.0227336595 -0.4029676766
C 4.6502792106 2.7288103061 -1.4347698119
C 5.1124360784 2.0451593400 -2.5672322330
C 4.9840779145 0.6703001498 -2.6713196029
C 4.3828871425 -0.0398271473 -1.6254871952
N 4.2385276343 -1.4097882230 -1.6891408903
C 3.6511732548 -2.1840790394 -0.7224696942
O 3.5484706439 -3.4011995500 -0.8410240689
H -1.2516812694 0.9280851387 2.6850391622
H -0.2797548002 1.1794905531 1.2300078808
H -0.8500278829 -1.5218136086 2.5735142388
H 0.6806674867 -0.6163229578 2.6183968961
H -1.5993492559 -2.4903188153 0.4324571714
H -0.5813952841 -2.2463132262 -1.0057453122
H -2.5867909958 -0.7890655208 -1.0439919074
H -4.3572152844 3.4668144142 -0.5157494588
H -6.7069052691 3.4149646477 -1.3667165399
H -6.9389872838 -0.7687462132 -0.4496953305
H -4.6168873993 -0.7301614520 0.3918009294
H 0.6092509390 -3.2926695582 1.7610094307
H 1.0915830800 -3.2168047657 0.0584283816
H 3.0331399489 -3.2401637836 1.5565875302
H 2.5056918210 -1.7426133256 2.3455377657
H 3.6922239180 2.5263786217 0.4851283450
H 4.7579193856 3.8058142197 -1.3685318075
H 5.5786400492 2.5965109547 -3.3775803876
H 5.3419706970 0.1385909925 -3.5473944284
H -1.0956599282 0.1669297702 -1.0166992298
H -2.8488005667 -0.4643106921 1.4044394922
H 4.5785111786 -1.9100914432 -2.4992869341
