45
CONF1279
O -0.4931151421 -1.1061225276 -2.8188122188
C -1.8103614911 -1.6136696787 -2.6025816407
C -2.4190144109 -1.1778294114 -1.2883708198
O -1.5986157054 -1.6939349015 -0.2006212497
C -1.5756083354 -0.7852677336 0.8842255189
C -1.8831350994 -1.5065875070 2.1902678370
O -0.9297923896 -2.5150855184 2.5084133232
O -0.2919759874 -0.1271196396 1.0028639549
C 0.8607592132 -0.8229051884 0.5748815654
O 1.2658208278 -0.4098303368 -0.7233780990
C 1.6101401018 0.9944022749 -0.8221390159
C 1.8574155355 1.3038278893 -2.2889219025
O 0.6541946541 1.4746670646 -3.0356297562
C 2.8292141234 1.2482318727 0.0606931690
O 3.1666661485 2.6307914572 -0.0393462541
C 2.4855310542 0.8818540173 1.4989281895
O 3.6740054579 1.0697847323 2.2714122798
C 1.9828075422 -0.5554822325 1.5874976593
O 1.5589179678 -0.8820051236 2.9163986814
C -2.5832849696 0.3245633179 0.5198080772
O -2.3387520647 1.5742170210 1.1290368454
C -2.5125217519 0.3136120485 -1.0115642136
O -3.6537187858 0.8504942981 -1.6605170587
H 0.0180586484 -1.2108038719 -1.9956459366
H -2.4419196145 -1.2473761180 -3.4185327405
H -1.8039098013 -2.7123582014 -2.6400308940
H -3.4266777431 -1.6164608937 -1.2178085127
H -2.8545831544 -2.0006600848 2.0866061955
H -1.9564038809 -0.7521506160 2.9872021506
H -0.1030251078 -2.0775879116 2.7743341909
H 0.6678063178 -1.8946914764 0.4885790294
H 0.7688468045 1.6070174953 -0.4666660064
H 2.4915725037 0.5122538536 -2.7176039888
H 2.4012587137 2.2497355908 -2.3523927026
H 0.1741023889 0.6249700265 -3.0456495277
H 3.6658912944 0.6168481737 -0.2829426030
H 3.8435308221 2.8036814220 0.6293546320
H 1.6941800420 1.5678535602 1.8452138392
H 3.4356764492 1.0318684341 3.2065209556
H 2.8095846699 -1.2357865587 1.3558087541
H 0.9675291505 -0.1732829552 3.2131567001
H -3.5898445137 0.0137319484 0.8264878235
H -1.4055582645 1.7876285518 0.9791465071
H -1.5919299673 0.8235018965 -1.3358348789
H -3.6197612345 1.8114616618 -1.5718476471
