43
CONF2
C 1.1969182283 -0.5969750253 4.6285015267
C 1.6764128053 0.6582352072 3.9309160093
O 1.5127402742 0.5785076275 2.4918971262
N 0.1659473066 0.7184004472 2.1795183865
C -0.0743759848 0.5853206276 0.9278778442
C -1.4601674073 0.7430725151 0.4569666947
C -2.0585699589 -0.3097553569 -0.2709427804
C -3.3994156781 -0.2515347629 -0.6386118279
C -4.1561879037 0.8576870240 -0.2747704036
C -3.5757678234 1.9074008541 0.4140219837
C -2.2175976834 1.8852155128 0.7731679558
O -1.7378185661 2.9677289433 1.4266709824
C -0.4520479813 3.5151048236 1.0458795307
Cl -4.5458786794 3.3136447987 0.8175948361
O -1.2390792958 -1.3550680101 -0.5455269476
C -1.7577976259 -2.4312340184 -1.3446519869
O 0.9333306217 0.1818666329 0.0783691724
C 0.8565243279 0.4250988220 -1.2780110557
O 0.2091317819 1.3340281772 -1.7444458908
C 1.6840725906 -0.5248064839 -2.0437142375
C 1.8425422249 -0.2949173413 -3.4161377923
C 2.5902432308 -1.1763565876 -4.1844019397
C 3.1801485644 -2.2917075764 -3.5896975657
C 3.0221874277 -2.5241714879 -2.2243949357
C 2.2778702221 -1.6444934301 -1.4478902593
H 1.3921959684 -0.5144049476 5.7024852077
H 0.1218354308 -0.7368900869 4.4851798692
H 1.7242184692 -1.4768273987 4.2477662733
H 1.1574557685 1.5521304605 4.2956294265
H 2.7540269176 0.7975902931 4.0551849254
H -3.8691197542 -1.0569700956 -1.1872096827
H -5.2039057577 0.9092651546 -0.5491695217
H -0.1483013110 3.1452336127 0.0628730613
H 0.3015349012 3.2577314430 1.7935790331
H -0.5868683825 4.5983944023 1.0090108988
H -2.0904024473 -2.0622471473 -2.3208195435
H -0.9243740305 -3.1218509931 -1.4735798175
H -2.5830540271 -2.9356131012 -0.8307798053
H 1.3772052969 0.5750138366 -3.8664302063
H 2.7142343309 -0.9964494302 -5.2472214903
H 3.7629797336 -2.9814435198 -4.1920676892
H 3.4788286410 -3.3943358398 -1.7643442540
H 2.1481451172 -1.8286179821 -0.3882709937
