54
CONF2
C -6.3501531926 1.8013574358 -1.2615640214
C -5.2060014128 0.8442308345 -0.9534178837
C -4.7543063792 0.8602358366 0.5537375409
N -3.3604157965 0.4581128020 0.5414359745
C -2.6484033346 0.4068363666 -0.7483960575
S -3.6788980219 1.3888200526 -1.8992425855
C -1.4182746558 1.0594773078 -0.0413122689
C -2.2759758625 0.9658481033 1.2421537680
O -2.1251146413 1.2487511638 2.4081242925
N -0.1267886700 0.4471088987 -0.0822485408
C 0.0959926136 -0.7696926054 0.4565691318
O -0.7946895745 -1.4517907060 0.9610424078
C 1.5381474699 -1.2891672635 0.4904965663
C 2.1084373542 -1.0889679460 1.8941118959
C 2.5424194438 -2.1925507852 2.6285847936
C 3.0650816755 -2.0181601401 3.9077583662
C 3.1578774454 -0.7420753962 4.4575870923
C 2.7270515072 0.3615163860 3.7235178655
C 2.2049739074 0.1910598108 2.4449571629
C 2.5235215706 -0.6869797016 -0.4896429007
O 2.5432256942 0.4574251662 -0.8884288550
O 3.4514384945 -1.6140202570 -0.8245898898
C 4.5358393838 -1.1773201635 -1.6142010557
C 4.5076091593 -1.4340635983 -2.9750797656
C 5.6083278728 -1.0582898469 -3.7426166055
C 6.7034833780 -0.4387112196 -3.1441549336
C 6.7039098086 -0.1923210252 -1.7720893912
C 5.6117339012 -0.5636534340 -0.9919351474
C -4.9161036233 2.2451259381 1.1731342632
O -4.1199221246 3.1505322809 1.0679563806
O -6.0843105688 2.3369863304 1.8284617291
C -5.5843625960 -0.5872656147 -1.3367200057
H -7.2286221727 1.5247217672 -0.6700483564
H -6.6166471313 1.7231607702 -2.3190126694
H -6.0899670855 2.8413807226 -1.0456134291
H -5.3858729318 0.1526469373 1.1018276796
H -2.4731357572 -0.6075980109 -1.1159889812
H -1.3276803693 2.1120099457 -0.3244215021
H 0.6575525122 0.9487770509 -0.4826465563
H 1.4768034647 -2.3622744406 0.2984901680
H 2.4693736159 -3.1872020899 2.1991604816
H 3.3982000904 -2.8821820965 4.4741327327
H 3.5643848032 -0.6072276851 5.4548816250
H 2.7964918463 1.3586239695 4.1466627940
H 1.8708490513 1.0557317356 1.8789902541
H 3.6434478097 -1.9172559995 -3.4185104662
H 5.6066117544 -1.2521043136 -4.8103665159
H 7.5580626332 -0.1487707568 -3.7466405905
H 7.5565247571 0.2887158258 -1.3038025224
H 5.5898115642 -0.3834314017 0.0781225027
H -6.1828009216 3.2470247689 2.1601128019
H -4.7844535318 -1.2969048867 -1.1081844296
H -5.8060396434 -0.6404009596 -2.4053059773
H -6.4782452771 -0.8858368689 -0.7775438408
