49
CONF4
C -5.0975816509 1.9207625166 -2.1851426046
C -3.8783445801 0.9949342712 -2.1569965840
C -2.7249158604 1.6056746995 -2.9577927724
C -3.4462152909 0.7245053542 -0.7145873046
C -4.4368731386 -0.0516206126 0.1984407492
C -4.4446829892 -1.4594601075 -0.4744383748
C -2.9753640913 -1.6308186911 -0.9606880206
C -2.2977328743 -0.3040047689 -0.5018092143
C -2.2729968762 -0.3564645340 1.0081896064
C -3.5932770134 -0.1951595519 1.4409175240
C -3.9219617171 -0.2591501157 2.7848048749
C -2.8861312983 -0.4721355049 3.6972965950
C -1.5680209568 -0.6498614936 3.2877971333
C -1.2490230652 -0.6119799823 1.9196275484
N 0.0422224181 -0.8170382181 1.4026078813
C 1.2088578503 -1.0594374006 2.0742142436
O 1.3064887629 -1.1287493022 3.2952143091
C 2.4151617413 -1.2546102893 1.2288639302
C 3.6276986169 -1.5877425926 1.8116634976
N 4.5374081708 -1.6955904013 0.8207426244
N 4.0113680269 -1.4543355472 -0.3885292086
C 2.7239661746 -1.1856014052 -0.1571189622
C 1.9005276320 -0.8647339382 -1.3494304319
F 0.8398958807 -1.7482730783 -1.4730490594
F 1.3252889598 0.3854968351 -1.2355947058
C 5.9445152469 -2.0393623330 0.9369644443
H -4.8675583662 2.8742292217 -1.6949771059
H -5.9559537238 1.4770350756 -1.6720313921
H -5.3989042721 2.1377874374 -3.2149848080
H -4.1607594656 0.0495947492 -2.6372628279
H -2.3861501672 2.5395391519 -2.4937541341
H -1.8666535614 0.9294183081 -3.0162251767
H -3.0395748877 1.8350267045 -3.9810295086
H -3.1779972778 1.6812217523 -0.2455777135
H -5.4254732374 0.3840357794 0.3528229448
H -5.1492612303 -1.4838226104 -1.3116019060
H -4.7447423293 -2.2323512676 0.2371339187
H -2.9196139394 -1.7360731337 -2.0486724061
H -2.4824658880 -2.5001450082 -0.5184197405
H -1.3551347757 -0.0806766648 -1.0041799667
H -4.9465857504 -0.1386217258 3.1228148568
H -3.1047750857 -0.5033115058 4.7602059183
H 3.8631692197 -1.7435020528 2.8535990194
H 2.4872543508 -0.8984631429 -2.2722424268
H 6.1903365814 -2.1469095898 1.9943242972
H 6.5558218221 -1.2475937727 0.4968310284
H 6.1442699865 -2.9800148887 0.4166486422
H 0.0911440867 -0.8002303025 0.3963127640
H -0.7849098214 -0.8185841878 4.0120620395
