49
CONF46
C -5.0612405901 1.4268209143 0.8526053628
C -3.6816375505 1.5008440978 0.2360083017
C -3.1261164349 0.3401965993 -0.5357362406
C -2.6382713732 0.5944475513 0.8872987761
C -1.2162592118 0.9372359453 1.0392923029
O -0.5030820415 1.4868258273 0.2286006705
O -0.7628199485 0.4924357687 2.2529127587
C 0.6850286781 0.5101282318 2.4000326345
C 0.9373104666 0.5666809115 3.8376814730
N 1.1698544763 0.6031276726 4.9679073107
C 1.2788411668 -0.7268166042 1.7621099868
C 2.0366802923 -0.5896641474 0.6029720671
C 2.5080149655 -1.7375967770 -0.0338412398
C 2.2235321479 -3.0033259608 0.4744405636
C 1.4625000004 -3.1206329702 1.6323770692
C 0.9895953498 -1.9873119394 2.2873905254
O 3.2112390453 -1.6977259456 -1.2142003156
C 3.8938168310 -0.5329763673 -1.5513486211
C 4.8895779078 -0.0298021483 -0.7194724508
C 5.6000656047 1.0949971138 -1.1270546930
C 5.3224968221 1.6998203850 -2.3526184273
C 4.3274950045 1.1760266066 -3.1743851192
C 3.6025983733 0.0548907175 -2.7753732546
C -3.8758812272 -0.9204814992 -0.8244555021
C -3.0017119123 -2.0685272370 -1.3535023293
Br -1.6028467666 -2.4550897267 -0.0026959214
Br -2.1039203021 -1.6204567780 -3.0436941597
Br -4.0661942734 -3.7063709493 -1.5959685981
Br -5.3195601120 -0.5100191208 -2.1514550420
C -3.2985472126 2.8845590423 -0.2358455581
H -5.3194918429 0.4211121586 1.1927464615
H -5.8127616628 1.7502200423 0.1261270284
H -5.1090217244 2.0981588015 1.7159932717
H -2.4090466468 0.6218554549 -1.3027409591
H -3.0268247472 -0.0624440782 1.6577635115
H 1.0929026202 1.4169430427 1.9398062436
H 2.2382783167 0.3931585071 0.1924520666
H 2.5971247086 -3.8795793650 -0.0444905699
H 1.2435558461 -4.1062982604 2.0299779685
H 0.3977152473 -2.0821017490 3.1924877722
H 5.1015317918 -0.5146326816 0.2282098811
H 6.3802142877 1.4943807163 -0.4867284674
H 5.8826571037 2.5745350958 -2.6661996318
H 4.1079573109 1.6413857268 -4.1300501424
H 2.8210841810 -0.3663790739 -3.3989511774
H -4.4162035972 -1.2983911325 0.0456248785
H -3.3264715790 3.5886337766 0.6025026686
H -2.3017469887 2.9067234486 -0.6782384128
H -4.0220116844 3.2201420557 -0.9862743246
