14
CONF3
C 0.5130435740 -0.9350336548 0.2463694367
C -0.6342074718 -0.5769114863 -0.6796702286
C -1.4583638520 0.5676261621 -0.1542558079
O -1.3698741372 1.0454128335 0.9584560377
O -2.3437989957 1.0039188662 -1.0734381029
C 1.5254623234 0.1727241591 0.3606688438
O 1.5903746532 1.1436888641 -0.3655486043
O 2.3924017116 -0.0493045938 1.3697037633
H 0.1577354709 -1.1929155025 1.2480898870
H 1.0409314788 -1.8180285427 -0.1336797190
H -1.3061752185 -1.4353062033 -0.7976117620
H -0.2793602634 -0.3221479856 -1.6826950263
H -2.8684947189 1.7201313418 -0.6762674510
H 3.0403254351 0.6761457315 1.3798784264
