39
CONF99
C -2.1650895949 -2.4579082907 -2.1834284347
C -1.1918789761 -1.4782710414 -1.5315137939
C -1.5605026712 -0.0410760533 -1.8892174838
N -0.6970875890 0.9713461007 -1.2543145264
C 0.6627131222 1.1153921121 -1.7982090498
C 1.7446013850 0.9556829713 -0.7535993131
O 1.6811518047 -0.4077147770 -0.2483301419
C 2.4655790958 -0.6292261707 0.8374204141
C 3.7640682504 -1.1371196844 0.7059709409
C 4.5637601281 -1.4218133620 1.8053966503
C 4.0426203167 -1.1829326251 3.0700452161
C 2.7615192786 -0.6825450527 3.2621349833
C 1.9915712298 -0.4134981772 2.1380470472
Cl 0.3697006445 0.1994589215 2.3486964213
Cl 5.0331892003 -1.5325471183 4.4726309392
Cl 4.3879149198 -1.4331923106 -0.8972529634
C -1.1252037193 1.9753859423 -0.4603490459
O -0.5027602553 3.0104655845 -0.2450906402
N -2.3982485296 1.7927324653 0.1846726924
C -2.9342549571 0.6683496558 0.7971614776
C -4.1108809231 1.0833623183 1.3529264199
N -4.3232439778 2.4282107357 1.0997387391
C -3.2759382840 2.8249807847 0.4133515405
H -1.8974265575 -3.4906786088 -1.9441470186
H -3.1885965799 -2.2829666321 -1.8340451069
H -2.1579734735 -2.3511530732 -3.2736322771
H -0.1685276102 -1.6881035645 -1.8602356994
H -1.1999691305 -1.6002276210 -0.4423724812
H -1.4796533827 0.0992200995 -2.9758160470
H -2.5994130161 0.1613622807 -1.6217039055
H 0.7802595015 2.1011741458 -2.2631491118
H 0.7893124379 0.3557877426 -2.5732670284
H 1.6096105716 1.6563323928 0.0760197245
H 2.7241560641 1.1253990086 -1.2169150873
H 5.5631183040 -1.8177047857 1.6744273077
H 2.3685201478 -0.5091612494 4.2561776800
H -2.4262313343 -0.2823585880 0.8080994161
H -4.8122472318 0.4942762759 1.9274498098
H -3.0882386141 3.8212796289 0.0362217312
