47
CONF3
C 0.1940811679 -1.1325598753 -2.9289694967
C -0.4917386410 -1.6195155188 -1.6843529850
C -0.9838894903 -2.9248602746 -1.6099824615
C -1.6163306671 -3.3859917918 -0.4625937418
C -1.7695693569 -2.5472823850 0.6347924033
C -1.2860473664 -1.2394161260 0.6065733205
C -0.6434595781 -0.7927718447 -0.5600852981
N -0.1440580556 0.5498773198 -0.6000339777
C -1.0547598564 1.6905005296 -0.7993506867
C -2.4186858751 1.2615115530 -1.3380032873
C -0.4416766880 2.6540915273 -1.8168617519
O 0.0714055304 2.3254743971 -2.8606761303
O -0.6683655285 3.9281454193 -1.4477641481
C -0.1600862889 4.9180275853 -2.3662705104
C 1.1464339381 0.8769049597 -0.2686799860
O 1.4953025354 2.0505990071 -0.1833961205
C 2.1158145101 -0.2606120157 0.0242475907
C 2.0400043490 -0.6707972913 1.4777481606
C 2.3103418046 0.2591424146 2.4859890536
C 2.2050684875 -0.1031315505 3.8244683912
C 1.8280190552 -1.3979993284 4.1729997435
C 1.5623021149 -2.3295224800 3.1740596338
C 1.6681168988 -1.9670163670 1.8345731961
C -1.4464578356 -0.3387141300 1.7976710556
H -0.0117602981 -0.0779135172 -3.1267654889
H -0.1094957619 -1.7323661167 -3.7903918363
H 1.2843918475 -1.2208012425 -2.8388174650
H -0.8738590547 -3.5790750744 -2.4699344468
H -1.9956084422 -4.4023912372 -0.4248445910
H -2.2618001181 -2.9096189367 1.5324371017
H -1.1700947228 2.2375437230 0.1445921801
H -2.3120582602 0.7559577564 -2.3013949050
H -2.9326345556 0.5894311115 -0.6475638985
H -3.0362047920 2.1530407928 -1.4772986196
H -0.4220240619 5.8816966166 -1.9300619744
H 0.9242053984 4.8160869036 -2.4579502344
H -0.6196782772 4.7989087810 -3.3510512300
H 1.9214620704 -1.1278025738 -0.6095908384
H 3.1094100646 0.1322016713 -0.2092880040
H 2.5908327863 1.2718169906 2.2108860254
H 2.4172313538 0.6281564616 4.5981450982
H 1.7455288963 -1.6796545697 5.2178669661
H 1.2691326849 -3.3414650280 3.4358166478
H 1.4419411877 -2.6915135919 1.0570619836
H -1.7892689346 -0.9077815825 2.6643152426
H -2.1791753324 0.4542735956 1.6061736854
H -0.5022392076 0.1471849254 2.0615569362
