74
CONF41
C -0.5685451329 -0.9554463615 0.0521146729
C 0.2720871801 -2.2237992590 0.1406765559
O -0.6266193513 -3.2021100412 0.7472222301
C -1.6142104139 -2.5737902728 1.4482076908
O -2.4210871559 -3.1831030444 2.1005329658
C -1.4338255454 -1.0778421797 1.2937898698
C -2.6539344514 -0.1585422649 1.2022659282
C -3.6609081258 -0.5986188870 0.1437193930
C -4.5368509167 -1.6434243058 0.4408207738
C -5.4178500401 -2.0966583772 -0.5344022831
O -6.3090071422 -3.1273171629 -0.3737218623
C -6.2309094574 -3.8672974920 0.8454740729
C -5.4616702914 -1.5088234715 -1.8031603239
O -6.3301230644 -1.9460309568 -2.7567018746
C -4.5974935976 -0.4476141853 -2.0889138939
O -4.7119096471 0.0772742361 -3.3425698134
C -3.8620053577 1.1700274671 -3.6658493180
C -3.6983922715 -0.0021505748 -1.1176366429
C -2.1360303240 1.2489620408 0.9474770925
C -2.9984293548 2.3163334985 1.2699927905
C -2.5641479048 3.5922228276 1.0187517270
C -1.3191706400 3.8435397144 0.4500285422
O -1.1573055220 5.1955319331 0.2664167338
C -2.2478268683 5.7980159504 0.9814604334
O -3.2307546771 4.7749800206 1.2156720415
C -0.4677828547 2.8264311872 0.1098635735
C -0.8862616535 1.5021804175 0.3647716405
C 0.1073415539 0.4034737230 0.0265449559
O 1.1785999908 0.4493122033 1.0087595600
C 2.4441653160 0.6479478151 0.4940798808
O 2.8753428797 -0.5748927644 -0.1354741710
C 4.1889645127 -0.4541533726 -0.6660480582
C 4.5829631083 -1.7296112115 -1.3918431135
O 5.9461872179 -1.6051248141 -1.8045699606
C 6.8210592895 -1.3811353331 -0.7119408570
C 8.2224800892 -1.2648330338 -1.2481389581
O 6.5024162370 -0.1687666931 -0.0280395729
C 5.1704183435 -0.2300385072 0.4802706637
C 4.8278350262 1.0679140932 1.1741497566
O 5.6248094281 1.3074332212 2.3325090965
C 3.3754310975 1.0251889369 1.6470141644
O 2.9645802070 2.2966880659 2.1229333023
H -1.2247515852 -1.0213234646 -0.8267869744
H 0.5895955491 -2.6272068731 -0.8225805307
H 1.1382873170 -2.0962862518 0.7942096692
H -0.8363830393 -0.7665242517 2.1669209353
H -3.1657615213 -0.1666991855 2.1722486534
H -4.4967660273 -2.1100537799 1.4157376617
H -6.5106962048 -3.2421907145 1.7024516858
H -6.9447818741 -4.6856606873 0.7440462610
H -5.2214038052 -4.2671256402 0.9984040987
H -6.8234825639 -2.6807697925 -2.3662750197
H -2.8024292277 0.8839888684 -3.6147654848
H -4.1124205388 1.4474030864 -4.6907958808
H -4.0382640104 2.0267373275 -3.0015992079
H -3.0347116848 0.8261894750 -1.3291805537
H -3.9783202361 2.1245250194 1.6933698133
H -1.8832907980 6.1777934247 1.9482922409
H -2.6886591495 6.5908368881 0.3714297152
H 0.5037384378 3.0327309843 -0.3251362086
H 0.5429708793 0.5957340819 -0.9637114626
H 2.4559085615 1.4535410733 -0.2670560531
H 4.2545136411 0.3946291532 -1.3686259517
H 3.9884624148 -1.8865066762 -2.2953165924
H 4.4505866478 -2.5940128319 -0.7197563084
H 6.7132467962 -2.2175067330 0.0068897441
H 8.2747995252 -0.4282763768 -1.9489719516
H 8.4967501479 -2.1851713580 -1.7674294394
H 8.9208396646 -1.0918903387 -0.4267231024
H 5.0796398948 -1.0672421810 1.1957719633
H 4.9413348656 1.8966080773 0.4539868111
H 6.5466175419 1.3291230774 2.0487662495
H 3.2755381409 0.2531525362 2.4276665230
H 3.6276618270 2.5791223842 2.7654820776
