47
CONF13
C 3.4718402555 -2.1653526678 4.1634945951
C 3.5691596167 -2.0987388063 2.6907476976
C 2.6938131366 -1.7329868623 1.6987354709
C 3.4502102641 -1.9071082988 0.4897722671
N 4.6666059008 -2.3364321826 0.7442080816
O 4.7438894460 -2.4464168635 2.1427123216
C 3.0537028902 -1.7008524119 -0.9126871797
C 3.9234471616 -1.0432623385 -1.7900300619
C 3.5576090699 -0.8454630852 -3.1159087337
C 2.3228129764 -1.2945644935 -3.5772017828
C 1.4561273288 -1.9565800623 -2.7117590091
C 1.8209495810 -2.1672470250 -1.3871967608
C 1.3321145715 -1.2242852228 1.9497194624
O 0.7169268988 -1.4781889288 2.9791391356
N 0.8151286466 -0.4151945434 0.9642148211
C -0.5643385189 -0.0499496300 0.9428004691
C -0.9657623242 1.4560676044 0.7855086206
N -1.5934490137 1.1138334315 -0.4975857496
C -1.3301106878 -0.2558456110 -0.3902530193
O -1.6225322866 -1.1866943252 -1.0943000604
C -2.8518032059 1.7427296113 -0.8223856847
C -3.6352526320 1.8842295698 0.5365680864
S -2.3056092270 2.1763717877 1.8255127229
C -4.6087497014 3.0587939633 0.5615773385
C -4.3694859522 0.5720762395 0.8202890877
C -2.6936443421 3.0672051729 -1.5500682392
O -3.5023779092 3.4977302016 -2.3349696357
O -1.5662153263 3.7240488857 -1.1953506615
H 2.6237264471 -1.5710261066 4.5026374576
H 4.4012643967 -1.8168832904 4.6212831132
H 3.3022270451 -3.2003982267 4.4804125402
H 4.8793890229 -0.6904065505 -1.4189779504
H 4.2365451494 -0.3330767516 -3.7898044902
H 2.0357674989 -1.1295947939 -4.6106140700
H 0.4917327460 -2.3098236570 -3.0601104677
H 1.1472888751 -2.6978148666 -0.7218480559
H 1.3479699360 -0.3014736501 0.1135737048
H -1.0719319026 -0.5257145342 1.7874715299
H -0.1318368484 2.1596401640 0.7159790613
H -3.4180578498 1.0879811496 -1.4926242439
H -5.3554350350 2.9423673394 -0.2306391631
H -4.0982683096 4.0144658593 0.4206185937
H -5.1310928643 3.0895078721 1.5218371019
H -3.7028265780 -0.2918403549 0.7527109471
H -4.7955455625 0.5895138268 1.8263601273
H -5.1837472481 0.4362094813 0.0983300343
H -1.5621762664 4.5604441771 -1.6884741428
