26
CONF438
C -2.2076151928 0.7128131741 1.1867046437
C -1.6658912496 0.6320720581 -0.2354361875
C -0.4965249545 -0.3525728321 -0.4167353293
C 0.6549529872 -0.1172756804 0.5615409981
C 1.8290673579 -1.0932283571 0.3806591768
C 2.4989290543 -1.0542872977 -0.9892808598
O 3.2268544086 0.1650675539 -1.1973124547
O 2.8008874195 -0.8361742494 1.4069933325
O 1.0714033469 1.2486473783 0.3788597298
O -0.9577442672 -1.7072290060 -0.3292503338
O -2.7120530596 0.2821333972 -1.1534662764
O -2.5969511763 -0.5743868565 1.7075790383
H -1.4395434286 1.1027390708 1.8618319441
H -3.0585202278 1.4055022338 1.2040365910
H -1.3221888842 1.6345261329 -0.5141130130
H -0.1308912279 -0.2286735735 -1.4437484815
H 0.2858091627 -0.2590590242 1.5894419670
H 1.4447412285 -2.1064070985 0.5448882011
H 1.7585776536 -1.2202905286 -1.7839019409
H 3.2370160589 -1.8605566439 -1.0440315122
H 3.4385289379 -0.2126484523 1.0278854100
H 1.6472736298 1.4772019579 1.1208036660
H -1.4046592582 -1.7842774199 0.5314894488
H -2.7352778839 -0.6860098278 -1.1873893891
H 2.5953838754 0.8897040879 -1.0685975301
H -3.4453473723 -0.8043839835 1.3068624883
