14
CONF3
C 0.7621615194 -0.7911011399 -0.0300725414
C -0.4472074040 -0.4663508962 -0.8884689983
C -1.5600461930 0.1347355483 -0.0667822686
O -1.6090480475 0.1535660128 1.1397346334
O -2.5402373522 0.6388379394 -0.8570447913
C 1.4109020143 0.4619332379 0.5027183458
O 1.1750406217 1.5860996650 0.1297975280
O 2.3353889499 0.1741147494 1.4524198437
H 0.4936613670 -1.4310810290 0.8151749390
H 1.5174551968 -1.3320224370 -0.6124832094
H -0.8402517337 -1.3725956981 -1.3643861274
H -0.1926910230 0.2302842885 -1.6921372921
H -3.2207889128 0.9928064112 -0.2631940899
H 2.7156609919 1.0207733424 1.7347237269
