47
CONF190
C -5.6946234921 -1.9772805232 3.3747187929
O -6.3047759944 -1.1224302144 2.3660513301
P -5.4449168478 -0.6145774318 1.1192119527
S -4.3344454096 -1.9186678391 0.2012239275
O -6.5532900543 0.1490302609 0.2592354869
C -7.4301995260 -0.5996060315 -0.6317765623
O -4.6601621689 0.6408021445 1.7833793195
C -3.5454987659 1.2183975110 1.1685020532
C -3.6922911106 1.9712707684 0.0123515963
C -2.5647191810 2.5545383904 -0.5588369629
C -1.3151102498 2.4024995986 0.0447661618
C -1.1917596415 1.6613405500 1.2239205965
C -2.3088747766 1.0527135529 1.7798684462
S 0.0830924067 3.2521072147 -0.6777679370
C 1.3785610614 2.0210245467 -0.6052146835
C 1.1388715592 0.6778298969 -0.9095407955
C 2.1863538788 -0.2337050992 -0.8964041044
C 3.4691616215 0.2096110564 -0.5990926677
C 3.7279538565 1.5414241477 -0.3062836129
C 2.6727288748 2.4488897569 -0.3011332996
O 4.4918965976 -0.7397917895 -0.5488804065
P 5.6996529254 -0.7588671317 -1.6459884859
S 5.1788964137 -0.3205000014 -3.4614600869
O 6.3109429507 -2.2031620186 -1.3461470895
C 5.5595213439 -3.3979635534 -1.7063406378
O 6.8359426984 0.2103024206 -1.0906493397
C 7.3501874801 0.0504152246 0.2695710898
H -5.3582212252 -2.9112134820 2.9179961063
H -6.4789200179 -2.1722514339 4.1053100587
H -4.8564950181 -1.4594586494 3.8490162390
H -8.0333205105 -1.3077204670 -0.0576480717
H -8.0700368935 0.1454412397 -1.1031896854
H -6.8364784409 -1.1233647906 -1.3848827399
H -4.6684879311 2.0879769845 -0.4455735988
H -2.6618203696 3.1250608562 -1.4766419600
H -0.2247008661 1.5505965795 1.7030383630
H -2.2309465740 0.4631935779 2.6871482677
H 0.1375659966 0.3412635504 -1.1567144064
H 2.0184848467 -1.2800180376 -1.1286403604
H 4.7345904820 1.8655942665 -0.0642484582
H 2.8601809388 3.4883617741 -0.0523639677
H 5.3871137023 -3.4169297141 -2.7855329913
H 6.1848636395 -4.2384554002 -1.4078969851
H 4.6103249169 -3.4207740311 -1.1648333894
H 7.9308708037 -0.8713922104 0.3382758213
H 7.9874810259 0.9169474597 0.4411476176
H 6.5248539385 0.0414967318 0.9859960716
