47
CONF110
C -6.5967998242 -0.9951384246 -3.5376923106
O -6.1759504375 -1.0390303276 -2.1444887799
P -4.6442652769 -0.7213698554 -1.7998174697
S -3.2563364051 -1.7345164890 -2.6914969331
O -4.4384551731 0.8536176925 -2.0274688907
C -5.3849193875 1.7976902474 -1.4401970481
O -4.8062846132 -0.9354610943 -0.1968707473
C -3.6892531409 -1.0922199137 0.6261196513
C -2.7732839637 -0.0571507767 0.7868020865
C -1.7021035033 -0.2333825414 1.6522044502
C -1.5425234724 -1.4442937463 2.3319264857
C -2.4723262886 -2.4707387200 2.1603721336
C -3.5577651149 -2.2923440824 1.3078209268
S -0.2002421920 -1.6834293021 3.4895116346
C 1.2311581976 -1.2028915500 2.5293759211
C 1.3318148726 -1.4678922076 1.1607485056
C 2.4817691021 -1.1112424235 0.4684245461
C 3.5321529048 -0.5185723480 1.1564337469
C 3.4598762563 -0.2686271727 2.5194768617
C 2.2962025107 -0.6024487666 3.2051545296
O 4.7003045901 -0.2178116075 0.4471783290
P 5.0837062885 1.3102203476 0.0617480385
S 3.6003646299 2.4628084325 -0.4311905890
O 6.2236716838 1.0661157034 -1.0321341820
C 5.8595424522 0.7628348866 -2.4079172990
O 5.9524939690 1.7286198312 1.3365196845
C 6.4092679982 3.1025924021 1.4875817763
H -6.3965631659 -0.0091699226 -3.9669728235
H -7.6690047683 -1.1873799996 -3.5242063269
H -6.0781849228 -1.7706780738 -4.1071876750
H -5.3971074377 1.6916745842 -0.3520778974
H -5.0203951119 2.7860421736 -1.7179291794
H -6.3847049613 1.6333994087 -1.8496257284
H -2.9028225732 0.8783963195 0.2533080521
H -0.9880820086 0.5711128928 1.7936973865
H -2.3447854788 -3.4139344541 2.6808994152
H -4.2857127966 -3.0817020969 1.1559294904
H 0.5135499764 -1.9439007114 0.6312527012
H 2.5718560429 -1.2979035296 -0.5963378893
H 4.2938841179 0.1950146862 3.0348840476
H 2.2194404039 -0.3903285632 4.2667018098
H 6.8025490417 0.6513478446 -2.9420888685
H 5.2898674344 -0.1697334333 -2.4490104531
H 5.2766914974 1.5852349330 -2.8300719854
H 7.0884954831 3.3642179972 0.6718717511
H 5.5527355377 3.7810953215 1.5052823790
H 6.9364759158 3.1312566247 2.4406027372
