44
CONF51
C -4.1768475334 2.5292199923 0.9093318220
N -4.3415231267 1.0814542931 0.9097560834
C -4.1186647999 0.3893066703 -0.3714290806
C -4.3687280634 -1.0765257997 0.0392065356
C -3.9436195907 -1.1232682278 1.5356472248
C -3.4865965218 0.3187104051 1.8362094424
C -1.9852851919 0.5159741147 1.5340914536
C -1.6763990452 0.0559692067 0.1171257773
C -2.6808813294 0.5911521770 -0.8972243885
O -0.3277314965 0.5483045115 -0.2045608900
C 0.3712348379 -0.1292735964 -1.1283867082
O -0.0327048927 -1.1146437781 -1.7136753939
C 1.7567135736 0.4704881159 -1.3090490455
C 2.1822728032 0.3915797850 -2.7799783238
O 1.2848109936 1.1045011479 -3.6332967995
C 2.7441993054 -0.2507384560 -0.4104645693
C 2.9478080770 -1.6296655123 -0.5293717297
C 3.8770328198 -2.2769433271 0.2804111540
C 4.6135527054 -1.5562502048 1.2186336594
C 4.4147073912 -0.1832953682 1.3432009696
C 3.4849481127 0.4648810999 0.5335619415
H -4.8904791995 2.9698534423 0.2040641839
H -4.4071971600 2.9148451607 1.9089412501
H -3.1713785709 2.8895379303 0.6365041375
H -4.8334451118 0.7453846369 -1.1219923757
H -5.4289567618 -1.3191386509 -0.0681300883
H -3.8017126677 -1.7740775606 -0.5843033298
H -3.1491328272 -1.8502052002 1.7281890529
H -4.7949496346 -1.3833015534 2.1696840311
H -3.6899452309 0.6187664728 2.8704993878
H -1.3801107999 -0.0490224436 2.2518761927
H -1.7215759962 1.5742932241 1.6423098367
H -1.6365838347 -1.0359990463 0.0706514403
H -2.4912160868 1.6578017490 -1.0647781138
H -2.5571003046 0.0786152352 -1.8567667483
H 3.2084561702 0.7724856641 -2.8706072387
H 2.1659674329 -0.6489988617 -3.1149393044
H 4.0251132462 -3.3476854792 0.1784540773
H 5.3376608898 -2.0622544339 1.8495195540
H 4.9830525280 0.3860721393 2.0723284500
H 3.3319159123 1.5358291310 0.6330953337
H 2.3727131904 -2.2003505484 -1.2520705627
H 1.7174936010 1.5217249186 -1.0061288311
H 1.3881435442 2.0470587621 -3.4503189012
