126
CONF30
C -4.4071045996 3.2063312202 2.6464756828
C -3.9169735548 2.7961347700 1.2555769985
C -3.0861335462 1.5039899917 1.3274531407
C -3.9910873619 0.2661029825 1.4359745878
C -4.3652306652 -0.2649436708 0.0558766532
C -5.5764215743 -1.1930866838 0.0457295465
C -5.7925967341 -1.7166647439 -1.3711821852
C -4.5365154906 -2.4316967811 -1.8752935403
C -3.3330799357 -1.4779405752 -1.7759108868
O -3.2068223890 -0.9482983653 -0.4537131424
C -1.9856864441 -2.2271558931 -1.9199750056
O -1.2224222206 -2.0015395023 -2.8355286799
C -1.6904697323 -3.3631242590 -0.9318888039
O -2.2112687234 -4.4466599948 -1.2116116456
N -0.8796796927 -3.1288036101 0.1169306866
C -0.4406525106 -4.2617409532 0.9525419558
C -0.2411619069 -3.8310459496 2.3997641379
C 0.6980778539 -2.6299121469 2.4799500174
C 0.1055660514 -1.4742555089 1.6787907257
C -0.1468993064 -1.8705348511 0.2159745451
C 1.1418250412 -1.9544235398 -0.6074000684
O 1.5495848728 -2.9493365225 -1.1633483555
O 1.7247749054 -0.7465387810 -0.6600848731
C 2.8683773380 -0.6121032899 -1.5517138358
C 2.8765009668 0.8338445108 -2.0702205354
C 1.6004021149 1.2287533142 -2.8433071795
C 0.3740618874 1.5626937684 -1.9632886808
C -0.7165816989 2.1834828002 -2.7996179848
O -1.3784834382 1.4851399651 -3.5667485657
C -1.0043715346 3.6672917965 -2.6455386296
C -1.5028175145 3.8420188262 -1.2319923860
C -2.7812064854 3.7626920256 -0.8311909000
C -3.1345586721 3.9611830147 0.6191221153
C -3.9331426384 3.4993220844 -1.7595278697
C 0.2252072541 4.5608316369 -2.9228823693
C 0.6145284872 4.5629046329 -4.3690731559
C 0.7086697689 5.6571770488 -5.1217720635
O 1.3059007078 0.1861934583 -3.7724750060
C 3.2314309646 1.8543306156 -0.9898400059
C 4.1601977270 -0.9938885777 -0.8666968472
C 4.2162997336 -1.2256620629 0.4490779921
C 5.4238906461 -1.5695894280 1.2659139176
C 5.1244593379 -2.7211953785 2.2388304669
C 6.3312940551 -3.0353292248 3.1231732566
C 6.7784285715 -1.8017364925 3.8914553713
C 7.0985856090 -0.6622756392 2.9337304102
C 5.8916103396 -0.3317910098 2.0586046591
O 7.5013785662 0.4460261272 3.7521653481
C 8.2559522070 1.4310121256 3.0485046931
O 7.9278320826 -2.1485486029 4.6748026125
C 5.3357215958 -1.0440597333 -1.8030056392
O -3.4549065076 -0.4803608328 -2.7398056172
C -4.7122062740 -2.9961097910 -3.2816058322
O -6.6787568747 -0.4081307292 0.5048886131
C -7.8030642126 -1.1901215465 0.9042901740
O -3.3991169826 -0.8099583977 2.1719913919
C -3.5055362796 -0.6313474002 3.5807605484
H -5.0825135931 4.0660212628 2.5873313151
H -3.5569109219 3.4834272939 3.2812270217
H -4.9439692887 2.3916226574 3.1434426390
H -4.7991602372 2.6030711912 0.6276912242
H -2.4199146093 1.5553981829 2.1974468763
H -2.4443681751 1.4037691465 0.4424759396
H -4.9350094050 0.5490340473 1.9248914467
H -4.6003139090 0.5959410493 -0.5886177775
H -5.3975111558 -2.0311786060 0.7399361000
H -6.6277049344 -2.4249671074 -1.3986463737
H -6.0459353695 -0.8737576950 -2.0269154803
H -4.3266781697 -3.2566784405 -1.1864827613
H 0.4997512494 -4.6545780139 0.5429355872
H -1.2005611473 -5.0405665147 0.8681830489
H 0.1589464725 -4.6836796940 2.9578688910
H -1.2106516574 -3.5686413144 2.8425299073
H 1.6855451861 -2.9029970647 2.0811011149
H 0.8436212748 -2.3207934203 3.5200729114
H -0.8597441364 -1.1841935440 2.1094773777
H 0.7556482535 -0.5951188423 1.6908490503
H -0.7589515011 -1.0791945262 -0.2325040283
H 2.7018903696 -1.2856771858 -2.3978578122
H 3.6706686595 0.8480862737 -2.8282842188
H 1.8712435647 2.1438872752 -3.3951937110
H 0.6749510344 2.2335309595 -1.1572059056
H -0.0177683412 0.6407550898 -1.5294225928
H -1.7878812439 3.9116666140 -3.3678656996
H -0.7326469118 4.0180785557 -0.4813171097
H -2.2253195078 4.1462131066 1.2050289592
H -3.7601838097 4.8625953887 0.6992867901
H -4.1900257598 2.4324787934 -1.7697726282
H -3.7163015962 3.7843062630 -2.7908964463
H -4.8255998976 4.0392050029 -1.4262549814
H 1.0638712217 4.2208578834 -2.2993395018
H -0.0172318659 5.5796292364 -2.6010516168
H 0.8155900393 3.5916225084 -4.8238710745
H 0.5070553269 6.6437908226 -4.7103577441
H 0.9915566086 5.6015018749 -6.1685219465
H 0.3980691676 0.3113067950 -4.0878343782
H 4.2695177722 1.7283932449 -0.6720683698
H 3.1136855152 2.8745099081 -1.3700031973
H 2.5969596735 1.7405583443 -0.1055872997
H 3.2985426980 -1.1267756829 1.0286831282
H 6.2496527867 -1.8799791729 0.6135028086
H 4.2687742621 -2.4370724416 2.8679922793
H 4.8261665673 -3.6136827145 1.6775767017
H 7.1692407634 -3.3858988788 2.5057191580
H 6.0935831223 -3.8344759274 3.8338539884
H 5.9624442003 -1.4670861055 4.5559005880
H 7.9495337459 -0.9689971994 2.3001964444
H 5.0729120263 0.0228516622 2.7002467244
H 6.1370104643 0.4763775443 1.3611910000
H 8.5709478185 2.1751259445 3.7836814289
H 9.1454252717 0.9849157727 2.5808819607
H 7.6576849242 1.9289109484 2.2740614115
H 8.2744613289 -1.3173020868 5.0279240115
H 6.1592010838 -1.6334800149 -1.3969855742
H 5.0457614254 -1.4771413369 -2.7670477064
H 5.7197044876 -0.0363271924 -2.0074662335
H -2.5900973876 -0.0559695317 -2.8883033506
H -5.5139576376 -3.7406967015 -3.2812043536
H -3.7983264660 -3.4860722087 -3.6332703088
H -4.9741808750 -2.2056086425 -3.9899087052
H -7.5179903720 -1.9225777945 1.6731354766
H -8.5373157186 -0.4972737603 1.3214703672
H -8.2576408907 -1.7205479782 0.0572670681
H -3.0183789243 -1.4904751761 4.0487205270
H -4.5591648226 -0.5950730711 3.8950987199
H -3.0053124332 0.2875473209 3.9190696359
