21
CONF33
C 1.1912101992 -1.0398262573 -0.0776328580
C 0.0203779115 -0.0710420836 0.1818685617
C 0.5455713889 1.3633311094 0.1197913329
O 0.8866916421 1.6776992411 -1.2437731947
C -1.1033080650 -0.2874089170 -0.8488285742
O -0.6118613047 -0.5204317425 -2.1786796424
C -0.5228478624 -0.3552566511 1.5923264100
O -1.7893339198 0.2560097593 1.8729182713
O 0.7676399406 -2.3870890395 -0.3102478560
H 1.8364810227 -1.0651849294 0.8088985912
H 1.7945149021 -0.6776606689 -0.9189931582
H -0.2268672069 2.0592671094 0.4764707055
H 1.4295894799 1.4652600948 0.7682757936
H 1.0579111450 2.6249414102 -1.3025759940
H -1.6833419576 -1.1767814190 -0.5813715422
H -1.7862838302 0.5724185819 -0.8351359124
H -0.0579342311 0.2459185958 -2.3905184972
H -0.6862097788 -1.4337007723 1.6858673400
H 0.2265475903 -0.0573113409 2.3410146242
H -1.6470660209 1.1973329173 2.0271612034
H 0.3585192567 -2.3904847015 -1.1868355992
