55
CONF23
C -8.1344248807 -1.0661820483 -0.3859939786
C -6.7245530628 -0.8770127237 -0.8905527909
O -5.8883255405 -0.6083165986 0.2741107639
C -4.5756546742 -0.4145324753 0.0146130178
O -4.0781297480 -0.4408694604 -1.0989939169
N -3.9139294760 -0.1894575841 1.1933385633
C -2.5412113381 0.0158105604 1.3737635542
C -1.6746102261 0.3443743450 0.3275771714
C -0.3166900919 0.4998891345 0.5883659655
C 0.1729082918 0.4575046866 1.8964197964
C -0.7023598417 0.1696128600 2.9424992864
C -2.0396974071 -0.0810309176 2.6808638731
S 1.8936497132 0.7849135870 2.2025179236
C 2.1512635375 1.9997829861 0.9245392044
C 3.0279189991 3.0658222449 1.1291357286
C 3.2163023853 4.0023005433 0.1184291229
C 2.5062177320 3.8989097979 -1.0772829568
C 1.6207117267 2.8451131651 -1.2763316977
C 1.4638665805 1.8781140399 -0.2866056516
N 0.6006567521 0.7535171145 -0.4739671062
C 0.8677203101 -0.1438099120 -1.5022405038
O 1.7194005852 0.1134579035 -2.3473859618
C 0.1122840597 -1.4593446450 -1.5310892422
C 0.4822716200 -2.3861502784 -0.3635469949
N 1.9237945619 -2.4211338310 -0.1152097158
C 2.6533330333 -3.1170498317 -1.1824295535
C 4.1416566557 -3.1057005206 -0.8785403397
O 4.4229851010 -3.7321693609 0.3789210283
C 3.7094320476 -3.0619460311 1.4250981666
C 2.2129396289 -3.0750649791 1.1661012289
H -8.4938367911 -0.1654696196 0.1194037679
H -8.1928252719 -1.9102470118 0.3068288557
H -8.7925315912 -1.2708753631 -1.2353069050
H -6.6463321090 -0.0291490117 -1.5780361864
H -6.3451875417 -1.7732202020 -1.3909942820
H -0.0013547022 -2.0355545363 0.5541360378
H -0.3365246563 0.1333895560 3.9634139861
H -2.7110855076 -0.3236324981 3.4990039759
H 3.5523526468 3.1604907549 2.0746156488
H 3.9033464800 4.8273861395 0.2755698924
H 2.6379144447 4.6428545182 -1.8559342620
H 1.0620548165 2.7537803739 -2.2004943167
H -0.9696967662 -1.3078853198 -1.5233298674
H 0.3673589380 -1.9196914355 -2.4876102620
H 0.0750383983 -3.3921164922 -0.5807795959
H 2.3045945444 -4.1637063181 -1.2875331282
H 2.4881676318 -2.6056085845 -2.1367683768
H 4.6907864451 -3.6685138481 -1.6386998539
H 4.5098951962 -2.0667598145 -0.8636337114
H 3.9428006914 -3.5907431754 2.3536089016
H 4.0626443276 -2.0204849098 1.5047951157
H 1.7048474132 -2.5265611673 1.9696610204
H 1.8472044994 -4.1208030011 1.1790568840
H -2.0436467784 0.4618080381 -0.6805936578
H -4.4710894115 -0.2741594116 2.0320643329
