34
CONF157
C -1.6867715874 -2.2677399392 -0.4947769703
C -2.2933228951 -0.9002779414 -0.3071578205
O -1.9284641751 -0.0543110451 -1.4679135206
P -1.0785413499 1.2750881915 -1.3015615847
S -0.8349070981 2.2321513155 -2.9640909805
O -1.6142879403 2.0858388604 -0.0369345538
C -2.6416965208 3.1320141218 -0.1626114893
C -4.0098113092 2.5335575677 -0.3890507074
O 0.2834893563 0.6003474545 -0.6210314553
N 1.2235904234 1.5559039545 -0.2338085002
C 2.2641064021 1.0095272651 0.3095343835
C 3.2053550591 1.9984373214 0.7561703091
N 3.9895793892 2.7631599902 1.1277205300
C 2.5979673286 -0.4051146191 0.5482207890
C 3.2831453688 -0.7407588722 1.7250289504
C 3.6115392884 -2.0643694689 1.9862970067
C 3.2858264631 -3.0582192391 1.0659417816
C 2.6307324553 -2.7240863946 -0.1180430136
C 2.2797068597 -1.4063690495 -0.3808468873
H -0.5946069516 -2.2137334825 -0.4939506737
H -2.0027775272 -2.9110423196 0.3326406613
H -2.0236650400 -2.7187471531 -1.4319643950
H -3.3854084065 -0.9274915030 -0.3082481891
H -1.9501323348 -0.4221788447 0.6141291679
H -2.3446838617 3.8049976782 -0.9727258633
H -2.5821174797 3.6642543889 0.7882766963
H -4.0665411602 2.0190235828 -1.3533414587
H -4.7513416207 3.3385801971 -0.3891158074
H -4.2628912525 1.8287263883 0.4079470501
H 3.5441766471 0.0318716642 2.4418006148
H 4.1277098742 -2.3182100582 2.9061174234
H 3.5495349815 -4.0916097972 1.2667631938
H 2.3913713573 -3.4941919327 -0.8440557194
H 1.7841370768 -1.1550275730 -1.3094473451
