54
CONF35
C -3.4439490729 1.4662490804 -0.9916839647
C -2.3865058530 0.4320200822 -0.5341770294
C -2.2246060364 0.5279044551 0.9942970348
C -3.4601760063 0.0416460863 1.7513102726
C -3.9300115268 -1.3277223842 1.2970885633
O -4.5827575052 -2.0572645971 2.0294806149
C -3.5890069264 -1.7204234051 -0.0718966376
C -2.8854404279 -0.9431842585 -0.9185036718
C -2.4939809844 -1.4133211660 -2.2821224989
C -0.9790402216 -1.6774131891 -2.2584149445
C -0.1669834194 -0.4300968085 -1.8289321904
C -1.0657555917 0.7487155392 -1.3506192288
C -0.2637068093 1.8482068022 -0.6681267386
O -0.5579440728 3.0185076030 -0.8231040518
C 0.8785276602 1.4387744051 0.2339977893
C 1.8267258633 0.4064782849 -0.4064060622
C 1.0165410266 -0.8087741859 -0.9244467658
C 0.7294689555 -1.6808326123 0.3239545031
C 1.7370416488 -1.2257195585 1.4072286740
C 2.7240354787 -0.2954901251 0.6846665290
C 3.4039662407 0.6909814920 1.6189989009
O 2.7757440021 1.2943809000 2.4717735961
C 4.8876335813 0.9343052197 1.4685424300
O 5.3348250525 1.9565008694 2.3198120742
O 3.7824458069 -1.0370576016 0.0649746601
C 2.6470359784 1.0901082371 -1.4980960605
H -3.0706368511 2.4794558585 -0.8157282831
H -3.6539853746 1.3614920018 -2.0602444886
H -4.3841625755 1.3271637607 -0.4538478172
H -1.3773359626 -0.0882283390 1.3113469298
H -1.9955840190 1.5622995202 1.2770839843
H -3.2743627205 -0.0042618863 2.8280742934
H -4.3032954464 0.7311728570 1.6162419414
H -3.9501895974 -2.6971833375 -0.3855280860
H -2.7305746553 -0.6522903813 -3.0371298022
H -3.0339947138 -2.3257983890 -2.5492867610
H -0.6453045107 -2.0257741646 -3.2416681584
H -0.8062083697 -2.4993683291 -1.5565446812
H 0.2978024458 -0.0295629070 -2.7387454374
H -1.4283852709 1.2213853609 -2.2689375303
H 1.4143200086 2.3445448079 0.5256488774
H 0.4328718767 1.0311215028 1.1476548368
H 1.6920804596 -1.3807465922 -1.5798686810
H -0.3011253814 -1.5689918591 0.6695461772
H 0.8497834914 -2.7427603056 0.0915499584
H 1.2438134310 -0.6760270881 2.2124405461
H 2.2812002123 -2.0541925337 1.8686794172
H 5.4017993248 -0.0190165583 1.6739892894
H 5.1062309205 1.1694733108 0.4153668450
H 4.5679022509 2.2057314610 2.8616200378
H 3.3977891986 -1.7759976261 -0.4186017714
H 1.9911860394 1.5022045445 -2.2726254340
H 3.3473224145 0.3963413162 -1.9689058969
H 3.2169157241 1.9303345229 -1.0880252437
