44
CONF10
C -5.3166216271 -0.4057218636 1.2232243831
C -3.8158121202 -0.2198529358 1.2712390310
C -3.0493657335 -1.3680683868 1.9608026136
O -2.4826698679 -2.1136323843 0.8677368402
C -2.1953182405 -1.1357227061 -0.1126669494
O -3.3019532495 -0.2511913394 -0.0903843079
C -2.1819134514 -1.8398020179 -1.4783042118
N -1.8159800115 -0.9196508034 -2.5397240312
C -2.5809576297 0.0083785326 -3.1494097172
N -1.8458475301 0.7304529515 -3.9866926220
C -0.6027478358 0.1913121311 -3.8355819495
N -0.5324885425 -0.8090856045 -2.9670187211
C -0.8964966263 -0.3747519488 0.1743135559
C -0.8995281996 1.0222983777 0.1206424404
C 0.2513134354 1.7756412304 0.3006361987
C 1.4522391943 1.1213073480 0.5465822657
C 1.5028891146 -0.2679310968 0.6223987416
C 0.3336265818 -0.9904877406 0.4265674876
Cl 0.4947401469 -2.7445149777 0.4981464424
O 2.5613949938 1.9041377884 0.7764759269
C 3.8048534299 1.4437651680 0.3726559850
C 4.8633784348 1.6141881006 1.2567668599
C 6.1472675044 1.2426251036 0.8701267102
C 6.3393356197 0.6997551377 -0.3942572272
C 5.2844334356 0.5286255143 -1.2842410499
C 4.0046258105 0.9093653313 -0.8976846033
Cl 7.9606546648 0.2185564974 -0.8850341204
H -5.7795377431 0.3683566587 0.6047100388
H -5.7304336109 -0.3326138358 2.2337589929
H -5.5631166459 -1.3886622803 0.8093440773
H -3.5530534547 0.7451651479 1.7216685418
H -2.2522534748 -0.9876821832 2.6118081894
H -3.7009713400 -2.0415353909 2.5206830889
H -1.4622058810 -2.6590061491 -1.4734532862
H -3.1846785232 -2.2304897657 -1.6686240833
H -3.6417561247 0.1079429541 -2.9613675690
H 0.2681911113 0.5347947723 -4.3796746756
H -1.8370049551 1.5241835293 -0.0879655189
H 0.2274638559 2.8583274300 0.2466817149
H 2.4354043124 -0.7799447996 0.8277983970
H 4.6821462514 2.0365562436 2.2391559334
H 6.9817611891 1.3694645931 1.5501852582
H 5.4553596946 0.1128925023 -2.2706432931
H 3.1716326270 0.7922553677 -1.5829041849
