41
CONF130
C -3.8819480093 0.3365878577 -0.7666868808
C -3.6911742593 0.7577794601 0.6941922350
C -4.2285278910 2.1662245668 0.9294722839
N -2.2843663120 0.7099155242 1.1390390072
C -1.6631274459 -0.6179353953 1.0618685504
C -0.4783745669 -0.6794408851 2.0272787782
O -0.8927429680 -0.2739088464 3.3345041884
C 0.6924184552 0.2072671103 1.6092098158
O 1.1333925025 -0.2448341611 0.3230858466
C 2.2053649517 0.3711745757 -0.2523824145
C 2.9133075111 1.4161729933 0.3451057965
C 3.9988611306 1.9840722601 -0.3221732161
C 4.3772087065 1.5209165370 -1.5766967495
C 3.6571269320 0.4806490664 -2.1650381144
C 2.5698792632 -0.1091776951 -1.5256588515
C 1.8127643374 -1.2550937296 -2.1557599241
C 2.2296664891 -2.5841424942 -1.5852687607
C 1.4117446340 -3.4458800529 -0.9849851632
H -3.3234642756 1.0098947172 -1.4286366838
H -3.5321881926 -0.6855546884 -0.9405482515
H -4.9397540949 0.3831102813 -1.0462679001
H -4.2438667107 0.0575415759 1.3367678207
H -5.2845630346 2.2262910764 0.6498384659
H -3.6764277802 2.8913385795 0.3191429237
H -4.1275579870 2.4526782585 1.9806212871
H -1.7539449504 1.3638879506 0.5679728371
H -2.4020284475 -1.3594921003 1.3897731357
H -1.3302488140 -0.9049277373 0.0530320410
H -0.1275934662 -1.7163919227 2.0970942144
H -1.5275627180 0.4459473596 3.1628944611
H 1.4995520865 0.1129048564 2.3470684133
H 0.3822089333 1.2611987495 1.5606773239
H 2.6305064088 1.7921627829 1.3209024194
H 4.5442687005 2.7954186355 0.1502710565
H 5.2192237333 1.9647376398 -2.0976703894
H 3.9403451057 0.1154922750 -3.1490774088
H 0.7338018675 -1.1230437846 -2.0238042185
H 2.0232070214 -1.2488331239 -3.2324490519
H 3.2883265112 -2.8254866978 -1.6877892757
H 0.3537034007 -3.2244041916 -0.8613308504
H 1.7725837502 -4.3941767864 -0.5975888126
