45
CONF128
O -0.7508091414 -0.6564632751 -2.7858218233
C -1.9606042656 -1.3692265511 -2.5531457509
C -2.5449991650 -1.1207719366 -1.1793129068
O -1.6391866328 -1.6776309662 -0.1783653828
C -1.5044204729 -0.8017394464 0.9266400814
C -1.5665356511 -1.6234568336 2.2095995781
O -2.7822811330 -2.3582571611 2.3021683956
O -0.2713511317 -0.0677727062 0.8880327635
C 0.9080740482 -0.7809421381 0.5651266516
O 1.3452922935 -0.4570429584 -0.7487321825
C 1.6788379229 0.9419328543 -0.9485642205
C 2.1224698680 1.0686733910 -2.3963886616
O 3.2771643670 0.2793666317 -2.6888004529
C 2.7657875783 1.3749856139 0.0415220236
O 3.0624369520 2.7665143469 -0.0977318722
C 2.3544176170 1.0438445549 1.4705097801
O 3.4198715235 1.2795137119 2.3942226388
C 2.0043140337 -0.4315117968 1.5699692353
O 1.5454057654 -0.7933798088 2.8677501418
C -2.6196088824 0.2423342875 0.7540257619
O -2.3988241515 1.4657603228 1.4256380313
C -2.7287679984 0.3341113606 -0.7693208645
O -3.9818368153 0.8050380572 -1.2459186263
H -0.1370974121 -0.8400575403 -2.0526129199
H -2.6843649572 -1.0332774642 -3.3038741508
H -1.8151152394 -2.4525395839 -2.6818839221
H -3.5116073089 -1.6408039275 -1.1038692809
H -1.5316407277 -0.9399263852 3.0627140207
H -0.6903505505 -2.2843691713 2.2603785014
H -2.8086838122 -2.9605189052 1.5460440303
H 0.7272124416 -1.8595972179 0.5514805471
H 0.7780538856 1.5584901735 -0.7978989973
H 2.3941259160 2.1107267226 -2.5849348355
H 1.2860925863 0.8031220992 -3.0559844469
H 3.0403740003 -0.6446231753 -2.5349992546
H 3.6970218197 0.8465376268 -0.1923181478
H 2.2600327772 3.2673914915 0.1099612115
H 1.4719835028 1.6455993163 1.7445289816
H 3.6290775945 2.2223628708 2.3606953626
H 2.8933104299 -1.0223939310 1.2977166706
H 2.2403553589 -0.5441998983 3.4917552167
H -3.5517661721 -0.1763973623 1.1499214915
H -1.5130275936 1.7730972075 1.1828870500
H -1.9022204567 0.9464770818 -1.1600606574
H -4.0066116051 1.7610205453 -1.1127486189
