67
CONF3
C 6.0960489098 -1.9384994466 3.3114242691
C 4.6802365988 -1.7422981098 2.8697295988
O 3.7456225819 -1.4592690765 3.5887610027
O 4.5570698278 -1.9128543596 1.5280729377
C 3.2702627713 -1.6199596573 0.9786753320
C 3.0368961280 -0.1212126508 0.8900141475
O 3.8760664986 0.6759468147 1.2560831565
C 1.6859641306 0.3175807734 0.3186976234
C 1.7666072862 1.6604368943 -0.4777032657
C 0.7611515522 2.6099090202 0.1630357493
C -0.2705246237 1.7051980445 0.8619086129
C 0.5996288852 0.5563278712 1.4348046245
C -0.2363647979 -0.6745437446 1.7996463969
C -1.3325477721 -1.0788682218 0.8205573481
C -2.2346580585 0.0984748942 0.4342825890
C -1.4144742339 1.2820608217 -0.0862561170
C -2.2943622740 2.5211138886 -0.3575531743
C -3.6846955463 2.2107356406 -0.9114337274
C -3.6668865533 0.8475874670 -1.5193290568
C -3.7480774685 0.7300731401 -2.8566663712
C -3.4785483911 -0.5261806638 -3.5544661154
O -3.5633208228 -0.6166819715 -4.7858363929
C -3.0921455636 -1.6560830890 -2.7148632891
C -3.0202138242 -1.5495338048 -1.3804975911
C -3.3764460014 -0.3138788526 -0.6022604550
C -4.6904215258 -0.7129012949 0.1465287199
F -4.6382855781 2.2772302025 0.1418432504
F -2.8569890127 0.5238080380 1.6426430849
O -2.0879555159 -2.1579516287 1.3824054739
C 1.2784819214 1.0485280388 2.7277328293
O 1.3330186680 1.2982763090 -1.8005111394
C 1.5582051977 -0.1012480686 -1.9534440624
O 1.2410922379 -0.6401879652 -0.6479231164
C 0.5762320038 -0.6607816894 -2.9559323469
C 3.0069450467 -0.3848484593 -2.3362850572
H 6.1198931672 -2.1677172633 4.3764818575
H 6.6382511510 -1.0018851194 3.1394573087
H 6.5874050189 -2.7222348155 2.7323165246
H 3.2555116344 -2.0570853633 -0.0214193151
H 2.4698075422 -2.0855132744 1.5651677365
H 2.7835092735 2.0652468974 -0.5064520701
H 0.3364824125 3.2831762948 -0.5849370067
H 1.2765454088 3.2307596192 0.9009901937
H -0.7338052062 2.2297817178 1.7057180674
H -0.7213875216 -0.4592129634 2.7607877729
H 0.4023702196 -1.5477163112 1.9684026402
H -0.8849894296 -1.4646159523 -0.0979999793
H -0.9869477315 0.9445599413 -1.0376358026
H -2.4275399167 3.1031267534 0.5611249617
H -1.7831648924 3.1665689438 -1.0759421467
H -4.0017267974 2.9611262404 -1.6404919584
H -3.9711170574 1.5948983674 -3.4767410830
H -2.8859733414 -2.5982306760 -3.2148185039
H -2.7976027273 -2.4286499966 -0.7849362899
H -5.0292764854 0.0936125275 0.7921173726
H -4.5122641016 -1.6088800776 0.7435119069
H -5.4613531623 -0.9277078906 -0.5981053194
H -2.4831788191 -1.8375407227 2.2051901746
H 1.8607824218 0.2464702414 3.1915730049
H 1.9497239834 1.8925698574 2.5548374617
H 0.5033829075 1.3603620185 3.4331877117
H 0.7019011372 -1.7437717635 -3.0326831480
H 0.7625430125 -0.2171773570 -3.9370998017
H -0.4478720608 -0.4405287764 -2.6485029992
H 3.7094022185 0.0467107653 -1.6172707302
H 3.2109955863 0.0572270997 -3.3151039106
H 3.1770791983 -1.4632342515 -2.3966097186
