39
CONF3
C -1.4647182554 0.8699447417 3.1850852731
O -2.1271811997 -0.0971025869 2.3580387112
C -1.7535265425 -0.1598237563 1.0513033320
C -0.7722370726 0.6453803949 0.4691644865
C -0.4719165124 0.5010540432 -0.8855853040
C -1.1355839414 -0.4499548453 -1.6604321374
C -2.1171722979 -1.2607021545 -1.0775359822
C -2.4247774612 -1.1240643301 0.2826229771
O -3.3501241086 -1.9544211013 0.8691542540
C -4.6875786346 -1.4134415510 0.8387447590
O -2.8203903814 -2.2170747457 -1.7425516925
C -2.5254485945 -2.4029198260 -3.1341002502
C 0.5873953134 1.3884489967 -1.5175189428
C 1.8564667833 1.4801256421 -0.7179675572
C 2.3029485236 2.6605753286 -0.1588311535
N 3.4318299387 2.7918006873 0.5581298465
C 4.1384118780 1.6567346424 0.7115126391
N 3.8190778625 0.4440062139 0.2269194123
C 2.6839553006 0.3526904680 -0.4813781012
N 2.3790287974 -0.8638820917 -1.0103143177
N 5.2712356771 1.7302329607 1.4784091410
H -1.9066493389 0.7604990142 4.1756919651
H -0.3881172441 0.6707267115 3.2369079899
H -1.6356050548 1.8872155221 2.8144993208
H -0.2347956545 1.3817852668 1.0543976363
H -0.8869299412 -0.5475731319 -2.7107706761
H -5.3304916844 -2.1463684199 1.3300493020
H -4.7298992728 -0.4615399188 1.3807580453
H -5.0183916184 -1.2656948623 -0.1960151685
H -3.1853374193 -3.2035471237 -3.4690022839
H -2.7323705377 -1.4909406197 -3.7057313302
H -1.4805908925 -2.7015745261 -3.2773809295
H 0.1824523728 2.4010028091 -1.6376834903
H 0.8002662695 1.0160749580 -2.5280075912
H 1.7150788420 3.5687128078 -0.2987078926
H 1.4250091080 -1.0448507889 -1.2855828386
H 2.8948915775 -1.6561801887 -0.6576058871
H 5.6597840734 2.6496482754 1.6183320787
H 5.9357173392 0.9788817472 1.3791312111
