40
CONF31
C 1.7812189151 -2.3571144664 -2.3971619504
C 2.5765115763 -2.0795572039 -1.1466710853
O 3.1078889981 -0.7179306957 -1.2675775369
C 3.7480044129 -0.2371443507 -0.2039235541
O 3.9424502216 -0.8416497107 0.8300197158
C 4.1838196804 1.2084286962 -0.4078708849
C 3.0341959817 2.1246431130 -0.8328895166
C 1.9157152202 2.0356891496 0.1740691194
C 0.8266810664 1.2011814839 -0.0762627171
C -0.2024655207 1.0391924228 0.8457577796
C -0.1313287795 1.7323635207 2.0519174169
C 0.9119874407 2.5951496440 2.3312430121
C 1.9256712892 2.7290773944 1.3905904952
Cl 3.2493179857 3.8146285958 1.7722835874
F -1.0808739084 1.5432562911 2.9839085895
N -1.2731059946 0.1686878170 0.5734471422
C -2.6148160209 0.4903156974 0.6101890462
O -3.1623419046 1.5244343216 0.9501677685
N -3.2095978633 -0.6891334167 0.1219040453
C -2.2066045961 -1.5912415284 -0.2131324751
N -1.0351497625 -1.0908927749 0.0416928920
C -2.4392545582 -2.9399683196 -0.7734376286
C -4.6174951617 -0.8376175461 -0.0044752373
F -5.0447480402 -1.9229413352 0.7116599184
F -4.9551183092 -1.0859919402 -1.3077458618
Cl 5.5102770724 1.2408531776 -1.6724933050
H 1.3674836361 -3.3679205409 -2.3370672710
H 2.4125119374 -2.2937073126 -3.2876446357
H 0.9513284408 -1.6511242121 -2.4957452128
H 3.4233368121 -2.7622096704 -1.0289733040
H 1.9576129372 -2.1205479943 -0.2456886600
H 3.4139341091 3.1465034457 -0.9102662889
H 2.6677362884 1.8149723509 -1.8138181886
H 0.7739074192 0.6586806148 -1.0142809399
H 0.9368685957 3.1240503340 3.2766052853
H -2.9860261092 -2.8798262728 -1.7191214506
H -3.0235906390 -3.5531787834 -0.0809614854
H -1.4728891705 -3.4153435783 -0.9463182251
H -5.1248007068 0.0656586348 0.3466931533
H 4.6493604791 1.5459777390 0.5187023303
