43
CONF64
C 2.1868076512 3.3123286111 1.6308462792
C 2.1333668259 2.0252194068 2.4257229239
O 1.6081515650 0.9264314754 1.6347404311
N 0.2428592553 1.0924844017 1.4735548855
C -0.2709937627 0.2466424665 0.6691279367
C -1.7054996224 0.2753422352 0.3425655629
C -2.3103945292 1.4212249205 -0.2212528808
C -3.6627492966 1.3843582688 -0.5730377565
C -4.4088054888 0.2304347019 -0.3669445070
C -3.8212219236 -0.8919438624 0.1970141915
C -2.4720589737 -0.8796139529 0.5567255999
O -1.8841531777 -1.9871002258 1.0983490008
C -1.9235302254 -2.0078862850 2.5468938611
Cl -4.7722590881 -2.3404007125 0.4641969738
O -1.5165122287 2.4992371736 -0.4036258344
C -2.0897055766 3.6610468287 -1.0265754238
O 0.4745012918 -0.7863354639 0.0992633224
C 1.2484270313 -0.4651554070 -0.9896730634
O 1.2397703036 0.6339589603 -1.4965043900
C 2.0491738929 -1.6194627557 -1.4455596493
C 2.8765320283 -1.4400296437 -2.5606580237
C 3.6482095381 -2.4952435200 -3.0279373774
C 3.5982749804 -3.7326265639 -2.3865603788
C 2.7754575592 -3.9139339567 -1.2761347902
C 2.0003349241 -2.8622733489 -0.8023274722
H 2.7905172247 3.1834540662 0.7274784178
H 1.1820374725 3.6354534723 1.3436791288
H 2.6399025282 4.0999007451 2.2413344649
H 3.1339620850 1.6816894870 2.7020585262
H 1.5275073657 2.1273180288 3.3328632479
H -4.1464840254 2.2443170518 -1.0170151376
H -5.4565021667 0.2099912941 -0.6458552345
H -1.3830683656 -1.1461014960 2.9543249432
H -1.4317814808 -2.9333289401 2.8484174271
H -2.9600486800 -2.0011037054 2.9007172217
H -2.4520906503 3.4251433005 -2.0331208015
H -2.9053502297 4.0668485548 -0.4184715374
H -1.2779047019 4.3856279528 -1.0858693731
H 2.9054035675 -0.4726818726 -3.0499767675
H 4.2891064116 -2.3550629696 -3.8921869052
H 4.2018956729 -4.5569939780 -2.7530637183
H 2.7379684477 -4.8773526694 -0.7783413650
H 1.3609464175 -3.0038214764 0.0608181099
