40
CONF62
C -2.6045694748 -1.7655655214 2.0757155611
C -1.1050254567 -1.6753568663 1.7484518115
C -0.3862196796 -2.8657172297 2.3943304027
C -0.9459528104 -1.6242295757 0.2228321261
C -1.2497824063 -0.4408966786 -0.4608449443
C -1.1458721491 -0.3637676809 -1.8451635951
C -0.7379441167 -1.4756081507 -2.5805137036
C -0.4441623423 -2.6604141435 -1.9135857057
C -0.5488905786 -2.7340892204 -0.5243324283
N -0.6260132165 -0.4155653591 2.3550191499
C 0.6046175912 0.1105688573 2.0474755364
O 1.5082085551 -0.5477710157 1.5258473416
N 0.7858503766 1.4318904075 2.4173836195
C 1.8701739539 2.1804413298 1.7801298447
C 1.6615597922 2.3778106061 0.2939506272
C 2.4571874945 1.6924432614 -0.6290659558
C 2.2628951685 1.8239206177 -1.9999820704
C 1.2546094032 2.6541579178 -2.4806580060
C 0.4469958116 3.3549935519 -1.5898821153
C 0.6641727686 3.2057041592 -0.2258904400
Cl -0.3758842784 4.1204527143 0.8751501667
H -3.0163540354 -2.6818731913 1.6456727014
H -3.1490473720 -0.9139834983 1.6546624521
H -2.7555565595 -1.7876871571 3.1603603950
H 0.6749446787 -2.8734148920 2.1396062808
H -0.4890826277 -2.7903533692 3.4803466122
H -0.8387943679 -3.8093813890 2.0777616187
H -1.5580032502 0.4393625326 0.0966738376
H -1.3766330697 0.5695960027 -2.3500772223
H -0.6494908881 -1.4166233820 -3.6608738070
H -0.1238819657 -3.5347394707 -2.4725316946
H -0.3030650379 -3.6671998186 -0.0303262377
H -1.3490060209 0.2366770833 2.6224986259
H -0.0455572757 1.9720564553 2.6128272019
H 2.8081670607 1.6433356957 1.9368596001
H 1.9447645849 3.1461656165 2.2886734990
H 3.2355314405 1.0377327829 -0.2501160843
H 2.8941612693 1.2747517197 -2.6908827681
H 1.0895651678 2.7617308989 -3.5478455064
H -0.3386170310 4.0104460984 -1.9486111220
