63
CONF91
C 2.6189369502 0.8006104120 1.0297026378
C 2.2007282749 -0.6363069013 0.7304948279
N 1.6535047639 -0.7553129717 -0.6262297529
C 2.6751281867 -0.3751562971 -1.6098080003
C 3.1077596091 1.0755177410 -1.4220423596
C 3.6438871013 1.2662781643 -0.0033807453
N 4.1045435973 2.6326026624 0.2416332576
C 3.3648063507 3.8130105360 0.2265133499
C 2.0214380688 4.0816468883 -0.0079500481
C 1.6041106748 5.4146595385 0.0558645200
C 2.4981206097 6.4474033974 0.3446428361
C 3.8495377301 6.1831859569 0.5810457115
C 4.2614975921 4.8626257428 0.5173072346
N 5.5052449426 4.2864403080 0.6976207641
C 5.4386504760 2.9159744301 0.5313822901
O 6.3646157108 2.1113881103 0.6205365027
C 1.1895557451 -2.1230937612 -0.8992232336
C -0.0070980497 -2.5587055317 -0.0559122788
C -1.1871148934 -1.5938250118 -0.1422804291
C -2.4482126011 -2.1168603641 0.5683556708
C -3.5151490150 -1.0342495100 0.6112563296
C -3.7976729047 -0.3697527443 1.8067849519
C -4.7432296963 0.6531997484 1.8606134371
C -5.3978110083 0.9971396655 0.6920065795
C -5.1508216804 0.3667795675 -0.5164005502
C -4.2044983334 -0.6532778843 -0.5445221122
F -6.3248003816 1.9935015947 0.7307346382
C -3.0068749841 -3.4074241013 -0.0080661385
C -3.6789380479 -4.2923729382 0.8418707036
C -4.2526914764 -5.4671166217 0.3645658568
C -4.1398129393 -5.7435620757 -0.9872221080
C -3.4817358313 -4.9029218816 -1.8667352623
C -2.9160265814 -3.7326332161 -1.3642780426
F -4.6900140217 -6.8918501366 -1.4679963485
H 3.0522902338 0.8558596096 2.0344599927
H 1.7331062076 1.4446533739 1.0105662234
H 1.4396308508 -0.9425935947 1.4545534015
H 3.0723110149 -1.3111807883 0.8620132535
H 3.5641793803 -1.0355315040 -1.5324447456
H 2.2582570370 -0.5082474254 -2.6145225207
H 2.2512115655 1.7343852359 -1.6006596101
H 3.8858182756 1.3274707908 -2.1510494945
H 4.5427851806 0.6471690793 0.1058965715
H 1.3096410084 3.2978845441 -0.2340129847
H 0.5591911514 5.6450030130 -0.1244985512
H 2.1416022704 7.4713152171 0.3864043427
H 4.5531510414 6.9777560276 0.8058128454
H 6.3628837484 4.7703506185 0.9121475677
H 2.0132464134 -2.8535639443 -0.7670918952
H 0.8978817922 -2.1592777755 -1.9573619536
H -0.3081152749 -3.5501541646 -0.4156399096
H 0.2778955597 -2.6941337155 0.9948183910
H -0.9173039324 -0.6384777544 0.3210955526
H -1.4132552995 -1.3657165935 -1.1922285936
H -2.1709169528 -2.3292891362 1.6086419187
H -3.2717922081 -0.6523573674 2.7144651107
H -4.9687558991 1.1708147760 2.7868817822
H -5.6895700774 0.6670747251 -1.4088166603
H -4.0064926425 -1.1601758294 -1.4843948615
H -3.7570471405 -4.0578759944 1.9002368127
H -4.7708856251 -6.1560651835 1.0229967042
H -3.4092048700 -5.1608779238 -2.9179244735
H -2.3913033602 -3.0767233272 -2.0512279854
