47
CONF74
C -2.8232730900 -2.4897641346 0.0809925777
C -2.9917327939 -0.9875801789 0.0479479996
C -3.9355570700 -0.3078238935 1.0128782326
C -2.4284531899 -0.2274964133 1.2519336927
C -1.7581898850 1.0667437321 1.0632688784
O -2.1992160561 2.0499927022 0.5088266078
O -0.4962477778 1.0190615574 1.5950406049
C 0.3102641807 2.1989472637 1.3339591695
C 1.3602967507 2.1835686060 2.3521645352
N 2.2159744487 2.1934859829 3.1272721832
C 0.8939189636 2.1712854739 -0.0606637113
C 1.6762073099 1.0822260891 -0.4464187202
C 2.1980223515 1.0288573411 -1.7326284673
C 1.9154982221 2.0773053429 -2.6131575437
C 1.1392276424 3.1571492774 -2.2424841698
C 0.6244267760 3.2072976667 -0.9498102670
F 2.4205712086 2.0153457102 -3.8620684639
O 2.9342049677 -0.0149797750 -2.2228809434
C 3.7247080399 -0.7446288951 -1.3367938525
C 4.6151046960 -0.1077697046 -0.4778533580
C 5.4327040845 -0.8861273108 0.3356885746
C 5.3660538122 -2.2778121253 0.2815245132
C 4.4749021170 -2.8944095041 -0.5932157588
C 3.6431696087 -2.1288625047 -1.4075470120
C -4.7571006460 -1.0557468415 1.9670106130
C -6.0122353691 -0.7545137223 2.3017169826
Cl -6.8993836240 0.5976455166 1.6537153286
Cl -6.9225229533 -1.7042830076 3.4482012533
C -2.8708115244 -0.3959251096 -1.3377543125
H -1.8749684079 -2.7621021651 -0.3936094163
H -3.6333752692 -2.9662525554 -0.4820158667
H -2.8210125479 -2.8948594654 1.0947139224
H -4.3637523370 0.6166663976 0.6378519268
H -2.0106194057 -0.8516811382 2.0345568852
H -0.2965763715 3.1010314770 1.4713894966
H 1.8788014755 0.2730640296 0.2481093846
H 0.9467027378 3.9456797358 -2.9617579105
H 0.0080910831 4.0453265906 -0.6435474574
H 4.6668516635 0.9758285640 -0.4487186038
H 6.1314601055 -0.3994932940 1.0087464611
H 6.0087812768 -2.8779500879 0.9169382667
H 4.4190230065 -3.9772026569 -0.6422862401
H 2.9397229830 -2.5898229890 -2.0927615114
H -4.3256770603 -1.9260752812 2.4521731669
H -1.8744719763 -0.5969625346 -1.7476910224
H -3.0409165700 0.6816544895 -1.3463465226
H -3.6085953011 -0.8680381676 -1.9949800444
