20
CONF8
C -2.5316857272 1.3118895868 -0.2698309716
O -2.1661135806 -0.0259131332 -0.7336549922
P -0.9385648320 -0.8040401973 -0.1154609639
O -0.7136278752 -2.1217506182 -0.7463186721
O -1.1875985844 -0.7131797132 1.4439998906
C -0.2051769004 -1.2620072471 2.3773694322
O 0.3623477537 0.2004288087 -0.2643552577
C 1.2000047919 0.0975039567 -1.3594006256
C 2.6406681815 0.4312479617 -0.9162687673
Cl 3.7503249051 0.3326531330 -2.3061907183
Cl 3.1149100495 -0.8132776925 0.2942113080
Br 2.7431240467 2.2103901192 -0.0857619438
Br 0.5841185834 1.3308547132 -2.8058922158
H -3.2974585810 1.6596986635 -0.9615856921
H -2.9304120387 1.2511823022 0.7444405293
H -1.6622902637 1.9725637416 -0.3068825378
H -0.6951236171 -1.2635849684 3.3498169660
H 0.0632831217 -2.2803843502 2.0863860768
H 0.6772150347 -0.6187405155 2.3948050131
H 1.1920557385 -0.8955349478 -1.8194258577
