47
CONF49
C -0.1793852015 2.6667273624 2.4039994173
C -1.0053124973 1.8676664492 1.4214285875
C -2.1001046653 2.5563591390 0.6725665951
C -0.7910377291 2.2496230034 -0.0529804557
C -0.8165755645 1.2271056987 -1.1054046167
O -1.6523895236 0.3635686921 -1.2602232646
O 0.2880046997 1.3599267820 -1.9104454269
C 0.3988137114 0.3910838625 -2.9813052218
C 0.7187787579 1.1325253275 -4.1978276938
N 0.9642824757 1.6982118541 -5.1736170488
C 1.4263945806 -0.6720668354 -2.6403916323
C 1.3649791047 -1.2525029109 -1.3727854614
C 2.2447734173 -2.2705550701 -1.0274864687
C 3.1855064527 -2.6950748269 -1.9715755255
C 3.2590941168 -2.1209005060 -3.2239259913
C 2.3727143256 -1.1019672465 -3.5648034180
F 4.0390466469 -3.6762378812 -1.6336280307
O 2.3089306989 -2.8581655499 0.2056058586
C 1.1932199957 -2.8710579464 1.0283146055
C -0.0702560184 -3.2189339930 0.5588237804
C -1.1262853004 -3.2895206236 1.4608495724
C -0.9225452714 -3.0312219174 2.8140003391
C 0.3502237816 -2.6976077298 3.2673735814
C 1.4144282684 -2.6096479766 2.3756338969
C -2.4745717241 3.9620793573 0.9323372369
C -2.9574512098 4.7729411372 -0.0090658660
Cl -3.1512911026 4.2714363529 -1.6584216892
Cl -3.4384576270 6.4111566084 0.3128088884
C -1.1858274306 0.4177422325 1.8047476091
H -0.6718414561 2.6865115555 3.3830787731
H -0.0285228740 3.6985039204 2.0752355804
H 0.8038689110 2.2033020816 2.5327654158
H -2.9094277104 1.9082121686 0.3375562417
H -0.1108092629 3.0757921176 -0.2269811999
H -0.5865349951 -0.0785749770 -3.1111761272
H 0.6316863541 -0.9212105715 -0.6469108226
H 4.0099132417 -2.4744416000 -3.9214249743
H 2.4293842726 -0.6463764265 -4.5471344820
H -0.2221021360 -3.4339969846 -0.4931558234
H -2.1138598808 -3.5584428968 1.1004429832
H -1.7514541851 -3.0933823447 3.5107256761
H 0.5194915427 -2.4994115870 4.3208367265
H 2.4149439992 -2.3537884371 2.7064274151
H -2.3857967156 4.3619118017 1.9382265433
H -1.8025527230 -0.1262467844 1.0883190395
H -1.6668566798 0.3580468447 2.7871175937
H -0.2172295800 -0.0891006151 1.8810793811
