40
CONF82
C 3.4517665193 -2.7203585930 1.1632570606
C 2.6335368857 -1.4761219845 0.8958908068
O 3.2945278775 -0.6214484977 -0.0883511798
C 3.0546261134 -0.9121315987 -1.3773726213
O 2.3968254309 -1.8411901483 -1.7786353253
C 3.6370131582 0.1831276101 -2.2649965709
C 2.4817008610 0.9921704874 -2.8776206106
C 1.6151216592 1.5322292640 -1.7705236016
C 0.4991060836 0.8049459275 -1.3582454128
C -0.2474286175 1.1748809048 -0.2461777300
C 0.1169026994 2.3228210834 0.4539547376
C 1.2132557351 3.0768665758 0.0781954180
C 1.9525305550 2.6668676626 -1.0240687401
Cl 3.3551589616 3.6216362659 -1.4628528668
F -0.6186610117 2.7221557993 1.4993481478
N -1.3348850130 0.3951843918 0.1871016231
C -1.4451186979 -0.1788220596 1.4413547325
O -0.7193478026 -0.0952901701 2.4099961343
N -2.6301673426 -0.9367730270 1.3018978632
C -3.0873385072 -0.8127109937 -0.0053505571
N -2.3184202559 -0.0258665572 -0.6938307772
C -4.2961217435 -1.4829043365 -0.5356545750
C -3.1550247989 -1.7132715051 2.3656322319
F -3.1861721188 -3.0387619047 2.0257014776
F -4.4482181245 -1.3556040858 2.6279663221
Cl 4.6390089776 -0.5643045344 -3.5762582133
H 4.4588233909 -2.4572471694 1.4980166058
H 3.5227320413 -3.3393011138 0.2657774902
H 2.9697280925 -3.3076577744 1.9510068058
H 2.5449248978 -0.8416259130 1.7799422175
H 1.6341994712 -1.7200529123 0.5241480990
H 2.8994549019 1.7916360412 -3.4937941653
H 1.8973222009 0.3249625547 -3.5163989760
H 0.2189319766 -0.0957056391 -1.8944799958
H 1.4734911660 3.9663361589 0.6381731901
H -4.4043249399 -1.2164003358 -1.5873945271
H -5.1892828053 -1.1672698551 0.0119503109
H -4.2132063081 -2.5698822211 -0.4423965123
H -2.5364246179 -1.5721481725 3.2584965263
H 4.3016443289 0.8241801123 -1.6841007797
