47
CONF11
C -6.0955688330 -1.4312434820 3.4325315033
O -6.6173259790 -0.8022141404 2.2271561523
P -5.6641803075 -0.5726084871 0.9657707529
S -4.5233104267 -2.0498830160 0.4236000909
O -6.6944148048 -0.0008920617 -0.1128175299
C -7.5185781352 -0.9130119725 -0.8949922519
O -4.8998451054 0.7886627714 1.4052596463
C -3.7500327418 1.2308977330 0.7424519780
C -2.5400745422 1.1627152408 1.4211448771
C -1.3920161778 1.6514040759 0.8112208193
C -1.4587045161 2.1755541212 -0.4829046635
C -2.6827632231 2.2295951822 -1.1536320073
C -3.8399244400 1.7672429995 -0.5342399665
S -0.0286044437 2.8787710434 -1.2953504746
C 1.2914384456 1.7780254872 -0.8006047722
C 2.4982847992 2.3366714875 -0.3767251301
C 3.5742920578 1.5140884659 -0.0550843277
C 3.4182570754 0.1384305272 -0.1474674714
C 2.2213709083 -0.4349490293 -0.5593210852
C 1.1569695633 0.3898575758 -0.8974048350
O 4.4560485531 -0.7191925606 0.2278694568
P 5.8206825331 -0.8402337929 -0.6414900020
S 5.6082860173 -0.7356293134 -2.5703971059
O 6.4403319459 -2.1839593286 -0.0396364543
C 5.9712981882 -3.4797798332 -0.5107619436
O 6.7229963144 0.2726477041 0.0643900824
C 8.0286485291 0.6128612078 -0.4860212618
H -5.2850647367 -0.8277142423 3.8500361750
H -5.7432042238 -2.4399147011 3.2037412960
H -6.9334625421 -1.4695169664 4.1277425647
H -8.0989000634 -0.2789150984 -1.5642133859
H -6.8824327180 -1.5911560723 -1.4689706059
H -8.1838935683 -1.4763913529 -0.2356410050
H -2.5056628008 0.7425851502 2.4206601625
H -0.4464054708 1.6174895554 1.3417068719
H -2.7367888075 2.6309194239 -2.1604384379
H -4.7964305422 1.8099489607 -1.0435637797
H 2.6000297449 3.4132293055 -0.2884705763
H 4.5143008525 1.9377307099 0.2813780871
H 2.1358096989 -1.5141836516 -0.6275456637
H 0.2237621903 -0.0476620101 -1.2363872053
H 6.5428308861 -4.2183462558 0.0502363700
H 4.9035212218 -3.5906940347 -0.3031467359
H 6.1656222083 -3.5796426696 -1.5813603919
H 8.6901715465 -0.2563928046 -0.4464300986
H 7.9191585387 0.9654053280 -1.5145069115
H 8.4134762309 1.4093930325 0.1496751904
