24
CONF235
C 2.7062732807 0.6827262700 0.8496057140
C 1.3026672244 0.1314447832 1.0834793172
C 0.5044836023 0.0059828324 -0.2219268054
C -0.9150416846 -0.5161910779 0.0294835000
C -1.7593112726 -0.4780194773 -1.2730827688
C -3.1634304899 -0.9237220257 -0.9715218433
O -4.1209953506 -0.2153957656 -1.2248859273
O -1.7493273823 0.8124952907 -1.8453859123
O -0.8822962550 -1.8466396357 0.5347772911
O 1.2071469238 -0.9332101811 -1.0505932119
O 0.5901344167 0.9310335493 2.0324982353
O 2.6763130516 2.0132847240 0.3103805561
H 3.2591181125 0.6618915262 1.7970144376
H 3.2290363733 0.0524872876 0.1246670816
H 1.3972652519 -0.8640147731 1.5344660492
H 0.4498945804 0.9904035171 -0.7022436322
H -1.3999711688 0.1100450128 0.7854291093
H -1.3273088240 -1.2194130392 -1.9707490681
H -3.2784744798 -1.9160338470 -0.5024369985
H -2.6802610558 1.0899756094 -1.9055151661
H -0.2406862602 -2.3291322945 -0.0101368467
H 1.0753523360 -0.6890633872 -1.9749466033
H 0.4864375598 1.8141771455 1.6505715023
H 2.6329810020 2.6348876703 1.0467449957
