43
CONF5
C -0.8265843314 -1.7066242845 2.1771611397
Si -1.6064779107 -0.0257973105 2.3058190934
C -2.8082553531 0.1565125794 3.7123535341
O -0.3218154519 1.0348595180 2.5183973675
O -2.4137070665 0.3486113729 0.9198003342
Si -2.0652744798 0.6273623509 -0.6724750856
C -1.4179315605 2.3642778711 -0.8593421518
C -3.6304775633 0.3408886126 -1.6350479820
O -0.9473047491 -0.4852476178 -1.1454307845
Si 0.5134268205 -0.7531475684 -1.8589965925
C 0.3853908086 -2.3564015488 -2.7926229644
C 0.9738014544 0.6815232647 -2.9587606748
O 1.6520490853 -0.9638799383 -0.6819660480
Si 2.6338326527 -0.0071246178 0.2472958333
C 3.1465069885 -1.0303623519 1.7188438226
C 4.0853100942 0.5817887159 -0.7595308236
O 1.8250446819 1.3603884058 0.7190162113
H -1.5899617373 -2.4647247098 1.9718177686
H -0.3151257167 -1.9766357511 3.1070535067
H -0.0980397170 -1.7303954816 1.3595898673
H -3.1942416439 1.1808847317 3.7633211832
H -3.6602569575 -0.5191325241 3.5806633363
H -2.3300885144 -0.0783815610 4.6689047997
H -0.5537347876 1.9273310972 2.8050551632
H -0.4667306415 2.4849731608 -0.3296349017
H -1.2592289560 2.6179950238 -1.9127338975
H -2.1369986806 3.0781408387 -0.4421245340
H -4.4238672962 1.0195113481 -1.3038305776
H -3.9823564577 -0.6880151463 -1.5015966498
H -3.4638244686 0.5085909930 -2.7046894291
H 1.3375268209 -2.6084679477 -3.2715542617
H 0.1170853229 -3.1743911217 -2.1147395740
H -0.3826574888 -2.2934482122 -3.5709461752
H 1.9030881920 0.4666600009 -3.4979527051
H 0.1874160684 0.8708968904 -3.6980215686
H 1.1215396452 1.5973689684 -2.3768685897
H 3.8483218905 -0.4740071595 2.3494779386
H 2.2789814307 -1.2991320991 2.3315169820
H 3.6356579931 -1.9573953625 1.4000573224
H 3.7555105130 1.2144733486 -1.5905485792
H 4.7765972591 1.1643822488 -0.1409384055
H 4.6365295674 -0.2677816409 -1.1766545321
H 1.0813241350 1.2330727724 1.3408618025
