41
CONF133
C -4.2843224175 1.3562687686 2.3202701079
C -4.4667202011 0.9408871378 0.8593518166
N -3.6940826492 -0.2392054909 0.4712692465
C -4.3539915196 -1.5354186097 0.5435391090
C -4.0670633716 -2.2865988639 1.8441618038
O -4.6049391262 -3.5963281763 1.6714886749
C -2.3541373719 -0.1498071831 0.1864058124
C -1.5902489494 -1.2954498608 -0.1476308469
C -0.2537519889 -1.1828542300 -0.4658158791
C 0.3995821436 0.0581813674 -0.4600074045
C -0.3463611554 1.2020618213 -0.1192779637
C -1.6804547109 1.1026524465 0.1979023230
N 1.7489013316 0.0433971056 -0.7909893394
N 2.3291703607 1.1694504760 -0.7661116013
C 3.6907452818 1.1234197024 -1.1166678986
C 4.3798754167 -0.0334628619 -1.5229167476
C 5.7202233497 0.0407488272 -1.8489279932
C 6.3726852701 1.2711475623 -1.7685862390
C 5.7132175024 2.4296246213 -1.3711172560
C 4.3699052212 2.3484433361 -1.0478778383
N 7.7989421374 1.3462504491 -2.1160866414
O 8.3560377222 0.3098516291 -2.4654017920
O 8.3480381440 2.4411602345 -2.0369772537
H -3.2306745031 1.5317612831 2.5536716350
H -4.6570686082 0.5833037531 2.9978799155
H -4.8393617453 2.2780814800 2.5209568640
H -4.2100263515 1.7709682433 0.1916664075
H -5.5205049485 0.7155571882 0.6686034078
H -4.0546264583 -2.1665553268 -0.3012846385
H -5.4328871603 -1.3832972290 0.4471198097
H -2.9822748602 -2.3129437507 2.0257010474
H -4.5421309523 -1.7657877825 2.6889448920
H -4.4715793661 -4.0934588334 2.4847494354
H -2.0425247263 -2.2783121629 -0.1594931856
H 0.3235738616 -2.0642952722 -0.7259831761
H 0.1475742427 2.1666201302 -0.1059322603
H -2.2121938266 2.0068669197 0.4637860891
H 3.8463380833 -0.9742549845 -1.5769038021
H 6.2749291281 -0.8335427502 -2.1661684597
H 6.2557706464 3.3650796041 -1.3227957350
H 3.8164181302 3.2269477752 -0.7345149426
