43
CONF7
C 0.9010763685 0.0631185648 2.2466428799
C 2.3873133275 0.3090780902 2.3891789360
O 3.0789476866 -0.0700280946 1.1543834209
C 3.4128723044 -1.3543967918 1.0150446678
O 3.2820728032 -2.2143314376 1.8626941895
C 4.0610284455 -1.6352888543 -0.3416131931
C 5.5667582808 -1.4449912541 -0.2393219685
O 3.5980613529 -0.7491908645 -1.3657833416
C 2.2607680549 -0.7557852918 -1.6633334542
C 1.8257349806 0.2795678310 -2.4956120151
C 0.4865727579 0.3733472297 -2.8472427561
C -0.4071727994 -0.5709676474 -2.3616482625
C 0.0093129545 -1.6101098654 -1.5485154247
C 1.3530613126 -1.7085189815 -1.1936763977
O -1.7515644996 -0.5006349162 -2.7642480210
C -2.6387335972 0.0690706832 -1.9109405068
C -3.9940396308 0.0656262050 -2.3649048673
N -4.9545076314 0.5807021862 -1.6452751772
C -4.6065448492 1.1237974600 -0.4379643099
C -5.6108357923 1.6876507300 0.3737756562
C -5.2500861948 2.2305367796 1.5836430272
C -3.9169602945 2.2423842577 2.0345045180
C -2.9302584999 1.6935817445 1.2471404411
C -3.2506589298 1.1226298109 -0.0012485316
N -2.2636810913 0.5785673100 -0.7719971710
Cl -6.4851619248 2.9380962242 2.6142551528
H 0.3895519700 0.4194757338 3.1462426154
H 0.6864296621 -1.0023301675 2.1259996926
H 0.5013791936 0.6050608971 1.3843456814
H 2.8222399416 -0.2487656106 3.2216582067
H 2.6129165110 1.3709517189 2.5012513457
H 3.8316515416 -2.6763986091 -0.6005875680
H 5.9705280831 -2.1081278647 0.5295032229
H 6.0300633614 -1.6931077106 -1.1972876490
H 5.8029928321 -0.4091723797 0.0188212245
H 2.5454313296 1.0082092262 -2.8533325339
H 0.1338270508 1.1767244243 -3.4853498449
H -0.7087891102 -2.3380841506 -1.1858931381
H 1.6637215268 -2.5279744462 -0.5569757171
H -4.2348266066 -0.3753739838 -3.3304568715
H -6.6387459326 1.6812184698 0.0294855394
H -3.6756821855 2.6821615804 2.9955495612
H -1.8960636404 1.6920216693 1.5753045140
