37
CONF404
C -2.7754149753 -1.6597074923 2.1133499756
C -2.6979026898 -1.9099740412 0.6260014774
O -2.9314334072 -0.6503135689 -0.0942310149
P -1.7222759610 0.0124239915 -0.8731926224
O -1.0274514906 -0.7725175242 -1.9178376851
O -2.4108982313 1.3727385285 -1.3129279643
C -1.8554882056 2.1063446363 -2.4482724845
C -0.5754634125 2.8257523863 -2.0795875719
O -0.6984501216 0.4904264853 0.3164291626
P 0.7235494175 -0.2102102650 0.6579281096
O 0.6451043980 -1.6346032327 1.0525570136
O 1.6835932298 0.1075792928 -0.5782145333
C 2.0645598824 -0.9562760308 -1.5146638299
C 2.1817090374 -0.3394531654 -2.8864796347
O 1.1845474221 0.8467713740 1.7582011179
C 2.3702598188 0.5255245120 2.5467330874
C 1.9866077770 -0.2173228385 3.8074535553
H -3.7398574930 -1.2219058852 2.3846108512
H -1.9745287164 -0.9899480384 2.4355489541
H -2.6584497615 -2.6096351716 2.6445111058
H -1.7264987906 -2.3278797931 0.3414562199
H -3.4874820702 -2.5832219419 0.2820825124
H -2.6476656998 2.8085569697 -2.7179721646
H -1.7019537003 1.4046696456 -3.2749543053
H -0.7314873482 3.4748157740 -1.2137501893
H 0.2274504023 2.1198170169 -1.8478893089
H -0.2533893563 3.4424099065 -2.9251619561
H 1.3084232180 -1.7433247227 -1.4942825895
H 3.0193441498 -1.3615984889 -1.1629232009
H 2.8990737972 0.4862520625 -2.8873387166
H 2.5261440574 -1.0982064587 -3.5963375423
H 1.2052097861 0.0230714714 -3.2161720046
H 3.0745131581 -0.0528829307 1.9359338662
H 2.8255855447 1.4945190248 2.7675083754
H 1.5307511076 -1.1791439054 3.5605253039
H 2.8804508846 -0.3956134605 4.4142395857
H 1.2792151414 0.3720656135 4.3971194207
