49
CONF26
C -3.4430080645 -0.4766464402 -2.1226308070
C -2.6396918253 -1.7587128895 -2.1892041856
C -1.5785915710 -2.0607222991 -1.1153183490
C -1.1870430934 -1.7248861438 -2.5687505672
C -0.5776461574 -2.8664080123 -3.3595518508
C -0.5091764936 -0.4073314395 -2.8809974425
C -1.2951455358 -1.1533675173 0.0008153664
O -1.3442692377 0.0581102995 0.0238930821
O -0.9357222719 -1.8951159296 1.1054220453
C -0.5598407692 -1.1114202412 2.2699677149
C -0.9593725596 -1.8985912975 3.4338831498
N -1.2593782074 -2.5041598845 4.3701131710
C 0.9227746275 -0.8106258685 2.2557239132
C 1.8481149735 -1.7848134505 2.6294437391
C 3.2067824100 -1.5053048466 2.5409096302
C 3.6465459853 -0.2635749655 2.0978072068
C 2.7123667042 0.7022933264 1.7332024750
C 1.3468410829 0.4364704257 1.8022734041
O 3.2106303157 1.8875961155 1.2419468514
C 2.4882099231 3.0545762631 1.4306574966
C 1.9655097536 3.3955162843 2.6754545655
C 1.3131939936 4.6145902322 2.8216818012
C 1.1923137873 5.4872079116 1.7428162047
C 1.7300101328 5.1347591554 0.5085637891
C 2.3775212544 3.9142678496 0.3447083077
C -3.5051188264 -2.9362842655 -2.5955178061
H -4.3020582047 -0.6115614976 -1.4567551160
H -3.8291916906 -0.2409389604 -3.1209834684
H -2.8732854992 0.3743518750 -1.7566845581
H -1.4803279897 -3.1072328389 -0.8461974255
H -0.7681699713 -2.7259832771 -4.4299512574
H 0.5073008501 -2.8814437920 -3.2127063989
H -0.9639402698 -3.8449731998 -3.0724260797
H -0.8615510382 0.4184658191 -2.2668734206
H -0.6735305677 -0.1570399682 -3.9353793331
H 0.5709887806 -0.4996926965 -2.7246341267
H -1.1304593049 -0.1753160560 2.2628536446
H 1.5055544261 -2.7483959757 2.9921233082
H 3.9332311486 -2.2565721880 2.8323342331
H 4.7024176571 -0.0261628925 2.0303053161
H 0.6242149479 1.1811155025 1.4882203064
H 2.0723635242 2.7142934698 3.5129086255
H 0.9053056174 4.8866406969 3.7899041495
H 0.6839373705 6.4373495009 1.8654362621
H 1.6412459678 5.8094551144 -0.3367307143
H 2.8003150283 3.6184205555 -0.6089757376
H -3.8703343193 -2.7988195846 -3.6199018929
H -4.3770400333 -3.0004101523 -1.9362993205
H -2.9837971414 -3.8929720009 -2.5472309417
