35
CONF42
C 0.7146656482 0.3106886461 3.1783282898
C 0.1110786781 -0.7362527181 2.2917112531
C -0.1910846570 -2.0012143352 2.7068268144
S -0.9335832719 -2.9416347576 1.4503928526
C -0.8576183565 -1.6251818716 0.3203716140
C -0.2637672868 -0.5336874363 0.9157600200
N -0.0799049960 0.7106380163 0.2393829786
C 1.1732921141 0.9605014268 -0.5220539263
C 2.4142155272 0.6247546993 0.2965562484
C 1.1876653059 0.1959633343 -1.8376792371
O 0.1259294811 0.6562819834 -2.6644418685
C 0.1006246551 -0.0321899383 -3.9129890895
C -1.0502958057 1.6714518301 0.2689290637
O -0.9464988013 2.7672127490 -0.2709001404
C -2.3023916806 1.2474722131 1.0458234031
Cl -3.4976442316 2.5989239908 1.1625084489
C -1.4597865018 -1.7487986068 -1.0374289373
H 0.3710190747 0.1828578365 4.2077028006
H 0.4430553608 1.3159974359 2.8426913410
H 1.8076674702 0.2505788720 3.1807647052
H -0.0300115501 -2.4347939264 3.6851686225
H 1.1633394378 2.0293608902 -0.7504229376
H 3.3044488211 0.8212715569 -0.3070179852
H 2.4667626164 1.2453310719 1.1924819257
H 2.4274828083 -0.4289482505 0.5932899349
H 2.1560026796 0.3731783881 -2.3321260093
H 1.0989639259 -0.8889982443 -1.6572876148
H 1.0317970194 0.1341838612 -4.4738233571
H -0.7420691457 0.3636205806 -4.4841143256
H -0.0354557512 -1.1137698025 -3.7660593003
H -2.0557522561 0.9438666576 2.0653721532
H -2.8025012342 0.4155635929 0.5444393352
H -0.9314717676 -2.4891614132 -1.6479903606
H -2.5077266639 -2.0595334843 -0.9732712622
H -1.4104466500 -0.7855345566 -1.5508949661
