59
CONF286
C 0.3466145997 5.4427970424 -4.4505859303
C 1.6534417092 5.5824724066 -3.6184643318
C 2.2964089276 4.1801896486 -3.6130836536
C 1.1270090175 3.2065060131 -3.8646707439
C 0.3141972589 3.9757545207 -4.9179829042
C 0.3119944914 2.9887861736 -2.5880613702
C 1.0384110840 2.1952854823 -1.5263630639
O 0.7957417710 2.3266787866 -0.3405019421
N 1.9989609609 1.2748537658 -1.9633866061
C 2.2875769952 1.0027458427 -3.3072376430
O 3.0717396895 0.1232590255 -3.6112080218
C 1.5704086920 1.8325364885 -4.3479280713
C 2.6720415509 0.4595638962 -0.9366526698
C 1.8536513314 -0.7768338463 -0.5801121425
C 2.5178255316 -1.5767088905 0.5371431552
C 1.6961183522 -2.7852854679 0.9819912479
N 0.3157362631 -2.4576303689 1.3497844186
C 0.2508238937 -1.5477704310 2.4971514964
C -1.1997744058 -1.2204879388 2.8409574227
N -1.9480377090 -2.4468040335 3.0984142512
C -1.8862596425 -3.3712465927 1.9710841983
C -0.4310579133 -3.6851356128 1.6368904695
C -2.1918597267 -2.8841372441 4.3712511860
N -1.9787681306 -2.0076736859 5.3807331305
C -2.2772647018 -2.4354487247 6.6020761686
C -2.7751830518 -3.7070286636 6.8655352468
C -2.9416096675 -4.5288537519 5.7561931874
N -2.6572823158 -4.1472559088 4.5160829735
H 0.3180418278 6.1343055954 -5.2965538898
H -0.5278915465 5.6684760655 -3.8327569309
H 2.3328343580 6.3267273244 -4.0417448308
H 1.4286167607 5.9100180049 -2.5990722799
H 2.8434341352 3.9678342751 -2.6883624883
H 3.0097848342 4.0872115892 -4.4409622990
H -0.7009504003 3.5816830238 -5.0371647322
H 0.8210648119 3.8758128980 -5.8861968843
H 0.0045331685 3.9253449884 -2.1162990238
H 0.6946993514 1.2482879555 -4.6673972207
H 2.2383741457 1.8952637729 -5.2120551752
H 3.6502590258 0.1799583372 -1.3342211660
H 0.8515696282 -0.4676931884 -0.2662977195
H 1.7361789980 -1.4058723010 -1.4711960622
H 2.7229954538 -0.9201038341 1.3921347889
H 3.4952945716 -1.9463727889 0.2015645312
H 2.2234133134 -3.2929883159 1.8161590517
H 1.6473102138 -3.5038966136 0.1527939632
H 0.7473723844 -1.9801200453 3.3913071440
H 0.7631774033 -0.6119465328 2.2490906787
H -1.6644172399 -0.7081817983 1.9881451082
H -1.2494418578 -0.5731577382 3.7156853601
H -2.4300809210 -4.2826180909 2.2177461257
H -2.3617460237 -2.8886064610 1.1069229446
H 0.0148265879 -4.2467452995 2.4844654140
H -0.3932811764 -4.3333295859 0.7524114549
H -2.1052672940 -1.7254297968 7.4112214678
H -3.3179783491 -5.5459044571 5.8675842289
H 2.8006478294 1.0932711996 -0.0556269961
H -0.6089663059 2.4365204124 -2.8256668466
H -3.0100353227 -4.0381053645 7.8691178963
