47
CONF124
C -5.2552055592 2.7533855640 2.3143688467
O -4.7014157967 2.0375495564 1.1864152883
P -5.4779313540 0.7671506139 0.5902436247
S -6.2765303927 -0.4675454335 1.8414413516
O -6.4484522074 1.4703862245 -0.4773742324
C -7.4481215221 0.6813735453 -1.1599859745
O -4.3444715576 0.1757716511 -0.4111015263
C -3.2991316194 -0.6085115012 0.0854146959
C -2.1276245549 0.0105794613 0.5030646695
C -1.0689697192 -0.7691088462 0.9490091885
C -1.1792322697 -2.1620222333 0.9525518047
C -2.3611782173 -2.7673496455 0.5201240571
C -3.4316901571 -1.9885900899 0.0961722230
S 0.1204259300 -3.2170695136 1.5780059483
C 1.5970715266 -2.3858832474 1.0116821624
C 2.6454471369 -2.1986377986 1.9136009803
C 3.8367171633 -1.6183013453 1.4910810185
C 3.9558973951 -1.2117169645 0.1711906624
C 2.9199854739 -1.3822736951 -0.7399675764
C 1.7428745471 -1.9850189124 -0.3195287007
O 5.1662484687 -0.6652200853 -0.2619156937
P 5.4043815075 0.9432500676 -0.2375802960
S 5.0448123376 1.9074444248 1.3837768772
O 4.5327985207 1.3452674983 -1.5414843410
C 4.2387735575 2.7378589363 -1.7929010620
O 6.9363651070 1.0100674778 -0.7000932357
C 7.3755227294 0.2955873397 -1.8817730349
H -6.1806376820 3.2595892605 2.0230938204
H -4.5011616855 3.4885636115 2.5970459216
H -5.4474881265 2.0654290162 3.1424353026
H -8.0406165998 1.3894470732 -1.7402412029
H -6.9679915409 -0.0393225594 -1.8295686466
H -8.0793039843 0.1583965288 -0.4354320586
H -2.0597697118 1.0924815387 0.4885094756
H -0.1554110347 -0.2948395158 1.2909053027
H -2.4434169371 -3.8491781099 0.5126378781
H -4.3602612668 -2.4412688326 -0.2313698920
H 2.5252773007 -2.4965002711 2.9496488718
H 4.6587932740 -1.4545928859 2.1779988555
H 3.0498204079 -1.0561412439 -1.7654668190
H 0.9313160449 -2.1405156621 -1.0222940717
H 3.6003215978 2.7523339736 -2.6772464121
H 3.7165792856 3.1742105492 -0.9369731524
H 5.1601562545 3.2964590833 -1.9877467574
H 7.3718901367 -0.7809609759 -1.6925294490
H 6.7324408043 0.5281937974 -2.7360450583
H 8.3920958830 0.6397927494 -2.0747536322
