50
CONF27
C 5.6236546764 2.0710399635 3.0432164373
C 4.8946033815 2.7749561425 1.9221347212
O 3.5374797232 2.2689214028 1.9184282605
C 2.7412902502 2.7967080199 0.9456410916
O 3.1324697613 3.6035202958 0.1214153158
N 1.4532880793 2.3321854018 1.0407870090
C 1.1009747692 1.1418796236 1.8080433714
C 1.1430634103 -0.1174114386 0.9213357153
C 0.2763317448 0.0787680228 -0.2955059149
C -0.7445961791 -0.7383130550 -0.6226471523
C -1.0345578632 -2.0197063865 0.0727386120
C -2.2934691513 -2.3659494279 0.5995675425
C -3.5309126312 -1.4861290703 0.5985686638
C -3.4199802702 -0.0850382582 -0.0126782672
C -2.9978557791 -0.1237413459 -1.4515976183
C -1.6641413522 -0.4387484094 -1.7559922610
N -1.1891096045 -0.5049233543 -3.0047554552
C -2.0410692392 -0.2599018700 -4.0062667127
C -3.3811600186 0.0546102285 -3.8138379517
C -3.8624786125 0.1259509098 -2.5111365307
C -2.4549223360 -3.6243738695 1.1917245792
C -1.4059670516 -4.5245821345 1.2524856773
C -0.1631748401 -4.2132772617 0.7157197890
C -0.0011660114 -2.9695913052 0.1287773096
Cl -1.6554964484 -6.0902561945 2.0056930052
C 0.5831629326 1.3469181773 -1.0460012522
C 0.5715547202 2.5611205516 -0.1001423534
H 5.1509922479 2.2770214643 4.0075145194
H 6.6589532553 2.4219770788 3.0847406171
H 5.6331823508 0.9891091991 2.8841872760
H 5.3503526499 2.5769331130 0.9464868146
H 4.8680682100 3.8601713232 2.0661940343
H 1.7713465454 1.0387260851 2.6607317478
H 0.0799714324 1.2787435640 2.1898061822
H 2.1871458404 -0.2836537377 0.6188393624
H 0.8241261967 -0.9813213331 1.5093572223
H -3.8756021224 -1.3870982720 1.6359223236
H -4.3237343886 -2.0318742183 0.0693034818
H -4.3939269595 0.4076328230 0.0775411554
H -2.6990134502 0.5090328418 0.5620210564
H -1.6270426471 -0.3186772189 -5.0114159369
H -4.0287213559 0.2442303708 -4.6631857585
H -4.9010097869 0.3821774908 -2.3174196873
H -3.4183255761 -3.8979642057 1.6107414072
H 0.6483918692 -4.9305050509 0.7439339179
H 0.9521580176 -2.7168388185 -0.3239420643
H 1.5876701680 1.2731900370 -1.4861880299
H -0.1177675987 1.5082453050 -1.8669891424
H 0.9004369951 3.4619131978 -0.6202780352
H -0.4454668422 2.7241927880 0.2813830138
