20
CONF35
C -0.7375984511 0.1771565476 -0.1677033165
C -2.0676050913 0.2058884016 0.5670550590
I -3.6502702178 0.8573941765 -0.7859018343
C 0.3695288975 -0.2547461508 0.7710930544
C 1.7753136885 -0.4546699975 0.1307934047
C 2.4397237440 0.7382812899 -0.6338222634
C 2.6234769665 2.0900832158 0.1237093775
F 3.4183042134 2.8858069080 -0.6048062815
F 1.4434465088 2.7047888013 0.2840747468
F 3.1868925720 1.8963787152 1.3217251092
F 1.7187006624 0.9939107946 -1.7520182835
F 3.6728599130 0.3162118348 -1.0034998659
F 2.6332118610 -0.8454434360 1.1056911987
F 1.6762603716 -1.4617452712 -0.7769959187
F 0.5228836977 0.6332416620 1.8047616464
F 0.0680263005 -1.4653536309 1.3416942537
H -0.4953907213 1.1670962910 -0.5613632471
H -0.7655297991 -0.5266784379 -1.0047027403
H -2.3829597111 -0.7767784524 0.9111962312
H -2.0840486421 0.9266868519 1.3824491091
