45
CONF30
O -0.7975123424 -0.5884354459 -2.8441122676
C -1.9703210266 -1.3663392645 -2.6310307013
C -2.5528453568 -1.2095655928 -1.2427909023
O -1.6288451250 -1.7985913562 -0.2724947934
C -1.4723288635 -0.9548896863 0.8442703014
C -1.4661316142 -1.8157155522 2.1031463037
O -1.1837360853 -1.0393681675 3.2712602713
O -0.2782995866 -0.1590272948 0.7627071331
C 0.9361671763 -0.8170626646 0.4265422844
O 1.3648060593 -0.4295700337 -0.8702782518
C 1.6504850990 0.9850696813 -1.0175036546
C 2.0878719078 1.1793401269 -2.4597672422
O 3.2792203428 0.4583992904 -2.7789837127
C 2.7169099321 1.4133442568 -0.0105931144
O 2.8875461831 2.8240512907 -0.1624830784
C 2.2827496387 1.0510026457 1.3987800040
O 3.3504044645 1.4117544606 2.2794099831
C 1.9923130032 -0.4450197995 1.4694654519
O 1.6148302633 -0.8509528770 2.7775192851
C -2.6308582086 0.0557321292 0.7570177381
O -2.4401772054 1.2489060015 1.4936286049
C -2.7794950653 0.2175856024 -0.7579511020
O -4.0611818883 0.6607892288 -1.1796013579
H -0.1499718405 -0.8016562095 -2.1496199569
H -2.7170233847 -1.0283849285 -3.3580134451
H -1.7784917818 -2.4345608422 -2.8122039639
H -3.5028183956 -1.7607692664 -1.1908179071
H -0.6849459093 -2.5799753224 2.0358503071
H -2.4384567423 -2.3190750525 2.1810879529
H -1.7950914850 -0.2882744869 3.2941078031
H 0.7959202167 -1.9010444493 0.3764416426
H 0.7329631062 1.5677552657 -0.8459064996
H 2.3056854789 2.2385566174 -2.6180257892
H 1.2631151353 0.8920817693 -3.1253149098
H 3.0876409565 -0.4811572426 -2.6608596929
H 3.6565019483 0.8852722612 -0.2364921004
H 3.5019452368 3.1093124017 0.5269177195
H 1.3720626369 1.6159867340 1.6550144197
H 3.0781247109 1.1630108599 3.1730955767
H 2.9106133400 -0.9939165972 1.2262900096
H 0.6820104053 -0.6017371038 2.9308740203
H -3.5410425431 -0.4142296907 1.1488665694
H -1.5783202678 1.6107126206 1.2379871882
H -1.9868920699 0.8805985626 -1.1342719121
H -4.1150994485 1.6100572470 -1.0111640240
