46
CONF71
C 5.5706755896 3.2257388777 3.1356714311
C 4.8335402723 2.0527482425 2.5361048060
O 3.8120846613 2.6072639168 1.6532968387
C 3.0169940764 1.7583481289 1.0029046792
N 3.1781784358 0.4493794696 1.1741342141
C 2.3229144520 -0.3096855379 0.4584654213
N 1.3777097186 0.1814813856 -0.3792385412
C 1.3224472801 1.5080335533 -0.4324206225
N 2.1097414288 2.3680262148 0.2261334098
N 0.3636088058 2.1085107078 -1.2337764817
C -0.6553890021 1.5614110508 -2.0100262627
O -1.4775422002 2.2840543187 -2.5522949998
N -0.6346027102 0.1848669142 -2.1209825796
S -1.9322184708 -0.6791329705 -2.7924000173
O -2.1436461397 -0.2172349414 -4.1651764114
O -1.5912083393 -2.0843340277 -2.5332085023
C -3.3865673552 -0.2510333788 -1.8246332081
C -4.3112943713 0.6111772141 -2.4012547852
C -5.4989202981 0.8852154654 -1.7292318793
C -5.7614005252 0.2789152582 -0.5059548433
C -4.8375904260 -0.5971392046 0.0564050755
C -3.6293264592 -0.8634443908 -0.5880640001
C -2.6205262336 -1.7122532632 0.1190666456
O -1.4958546682 -1.3446957365 0.3906202391
O -3.1426328166 -2.8912626038 0.4705835111
C -2.2585258063 -3.7612515615 1.2284329456
N 2.4041220516 -1.6400881417 0.5711082162
C 3.3486886224 -2.3182643191 1.4470766361
H 6.0469806065 3.8282397267 2.3573025612
H 4.8922182728 3.8612246454 3.7114591808
H 6.3484588495 2.8521370942 3.8077773142
H 5.4940392128 1.4104077907 1.9458962889
H 4.3411578162 1.4431426808 3.2997568874
H 0.3522851986 3.1199473540 -1.2052148013
H -0.0189495770 -0.3209501934 -1.4597139295
H -4.1058829120 1.0518511453 -3.3690419170
H -6.2198654490 1.5634950585 -2.1723635136
H -6.6912162109 0.4821839194 0.0145511477
H -5.0421495665 -1.0695146934 1.0111338514
H -1.9652731535 -3.2730895008 2.1603739022
H -1.3728781715 -3.9967244737 0.6340396808
H -2.8422391675 -4.6585463464 1.4263498101
H 1.7312683407 -2.1834619665 0.0528810759
H 4.3786220322 -2.0466619555 1.1963628613
H 3.1685822720 -2.0659908932 2.4976398884
H 3.2213817428 -3.3930404194 1.3124114937
