43
CONF9
C 0.8421489519 1.1642330288 1.6459983514
C 2.3006791846 1.5583347847 1.5347585765
O 3.0414275962 0.5432968444 0.7959494550
C 3.4214675915 -0.5379831719 1.4903127304
O 3.3253847395 -0.6782606270 2.6881100016
C 4.0588174390 -1.5927861002 0.5811016730
C 5.5440917808 -1.3111025655 0.4183917554
O 3.4933663162 -1.6045476289 -0.7289857966
C 2.1382235690 -1.7680243577 -0.8313103358
C 1.5834409382 -1.4355125747 -2.0696572255
C 0.2162876707 -1.5378061437 -2.2685203144
C -0.5903495264 -1.9700803276 -1.2249769309
C -0.0546935058 -2.3222435847 -0.0010783319
C 1.3200896501 -2.2259339061 0.2028704864
O -1.9721445864 -2.1080529292 -1.4301801599
C -2.7456586715 -1.0110061647 -1.2276839032
C -4.1435962484 -1.2114340913 -1.4470036694
N -5.0073272803 -0.2469576870 -1.2840631056
C -4.5123761322 0.9674389066 -0.8968750494
C -5.4050547501 2.0410592585 -0.7088023707
C -4.9027624664 3.2606233753 -0.3233084529
C -3.5253860797 3.4653507779 -0.1140728152
C -2.6456189548 2.4234386651 -0.2943711559
C -3.1155108411 1.1534783951 -0.6861338300
N -2.2331305447 0.1280339109 -0.8587874689
Cl -5.9922214361 4.6111980499 -0.0822606184
H 0.4191036955 0.9465545718 0.6605794418
H 0.2757143844 1.9833641420 2.1011180329
H 0.7263873999 0.2789168727 2.2759215925
H 2.7646005472 1.6916167877 2.5161123166
H 2.4317380206 2.4643781323 0.9389918102
H 3.9131372121 -2.5617387552 1.0770763172
H 5.9995950185 -2.0906056709 -0.1970121890
H 5.6914977259 -0.3432140570 -0.0671688141
H 6.0285543493 -1.3021967419 1.3979328710
H 2.2398497167 -1.0837649626 -2.8575740072
H -0.2305356659 -1.2689223838 -3.2193857538
H -0.7082610781 -2.6618100360 0.7949493677
H 1.7262510498 -2.4970634206 1.1699180435
H -4.5012368337 -2.1921612946 -1.7562808148
H -6.4638995542 1.8804430834 -0.8726509870
H -3.1720633033 4.4449329578 0.1863357842
H -1.5800266862 2.5565165429 -0.1420686918
