38
CONF3
C 4.0673838933 2.2045870858 -3.0566051071
S 3.6144371035 2.0310440552 -1.3187480172
O 4.4207486543 2.9718533305 -0.5433341144
O 2.1578184389 1.9728694960 -1.2115047582
N 4.2223725835 0.4735372638 -0.8962803545
C 3.6004807041 -0.7693563853 -0.9180693133
O 4.2530283154 -1.7869818026 -0.8226994014
C 2.0990337602 -0.8110386930 -0.8243555488
C 1.2533440483 -1.1037280743 -1.8955372537
C -0.1151714485 -1.2711086970 -1.7176232711
C -0.6654621171 -1.1320614024 -0.4564608492
C 0.1754891196 -0.8313676471 0.6154198511
C 1.5487704542 -0.6854736403 0.4404028530
O -0.2746444789 -0.6937860507 1.9030660224
C -1.6174426588 -0.4704167896 2.1168274394
C -2.2112505314 0.7509049644 1.7823453508
C -3.5512421363 0.9731062632 2.0750246542
C -4.2851080811 -0.0198946501 2.7153803915
C -3.6937233850 -1.2324481436 3.0630822246
C -2.3582281131 -1.4538553686 2.7607850232
C -5.7465920050 0.1928158123 2.9969113349
F -6.1090827528 -0.3444396790 4.1837996074
F -6.0762278232 1.5016100974 3.0238258091
F -6.5201887371 -0.3935899632 2.0482149551
Cl -1.2702724540 1.9948335055 1.0181273371
N 1.7976040915 -1.1843028518 -3.2448638290
O 2.9651362648 -0.8152860179 -3.4020524310
O 1.0766349832 -1.5957562043 -4.1423638084
H 3.5791392363 1.4146480766 -3.6284699716
H 3.7155797838 3.1945881157 -3.3585287632
H 5.1545533080 2.1461713060 -3.1383473442
H 5.2339666495 0.4277520345 -0.8202344387
H -0.7350833812 -1.4958381125 -2.5764429324
H -1.7325267536 -1.2467683814 -0.3062026531
H 2.1712206117 -0.4529421361 1.2969039429
H -4.0056353032 1.9217840872 1.8169977998
H -4.2722080892 -1.9968330252 3.5688197624
H -1.8666525643 -2.3848317676 3.0203250896
