44
CONF2
C -2.6913790864 -3.3413212907 -1.3682760333
C -1.5154689225 -4.3137431109 -1.2042274654
C -0.4705716575 -3.4554177315 -0.4903746151
C -0.5640023103 -2.0921464315 -1.2104566368
C -2.0224485300 -2.0083367823 -1.7551216514
N -0.1752696611 -0.9480378755 -0.3799666636
C -1.0388452382 -0.5745488969 0.7292188585
C -1.6179176502 0.8281003406 0.6481886751
C -1.6801947909 1.5291877635 -0.5556812574
C -2.2344135411 2.8039263789 -0.6126791195
C -2.7294041836 3.3781070037 0.5512691720
C -2.6720283588 2.7056054204 1.7671214770
C -2.1115717367 1.4347273808 1.8054362231
Cl -3.4253713404 4.9850156550 0.4909913803
C 1.1557874149 -0.5479362572 -0.4338431617
O 1.9786792500 -1.0892571320 -1.1603304300
N 1.4525922688 0.5237286778 0.3995980915
C 2.6946728209 1.1638226950 0.5428826515
C 3.9166809208 0.5732266220 0.2027537609
C 5.0968068892 1.2757477913 0.4221277810
C 5.0900093750 2.5515788397 0.9769066006
C 3.8721445029 3.1332463925 1.3176606896
C 2.6845602450 2.4491472519 1.1017206405
H -3.2114547762 -3.2405507604 -0.4070699974
H -3.4305502416 -3.6728028703 -2.1028047360
H -1.7800988810 -5.2210154817 -0.6533744807
H -1.1408769904 -4.6193094812 -2.1893559856
H 0.5454705463 -3.8570946361 -0.5224968418
H -0.7510516034 -3.3411136004 0.5652656669
H 0.1389871733 -2.0943765833 -2.0450533693
H -2.5640995658 -1.1418442592 -1.3643880410
H -1.9964888927 -1.8923188211 -2.8429381579
H -1.8700347112 -1.2896419040 0.7582366793
H -0.5125378918 -0.6901096939 1.6886177095
H -1.2747329981 1.0783801761 -1.4561650533
H -2.2766131256 3.3478030460 -1.5491529676
H -3.0536148397 3.1732426224 2.6672567985
H -2.0568585882 0.9089169835 2.7553802734
H 0.6716637433 1.0647089761 0.7412692039
H 3.9328184633 -0.4136514630 -0.2360192480
H 6.0390424812 0.8089058686 0.1521498156
H 6.0194156115 3.0859696414 1.1412387757
H 3.8421146504 4.1283909301 1.7499873677
H 1.7364544441 2.9130893839 1.3644977157
