41
CONF21
C -4.5392674462 -0.3865558281 -2.0397984017
C -3.9668813633 -1.4539727243 -1.3509318615
C -3.4592864679 -1.2669813762 -0.0683277374
C -3.5132685416 -0.0110072227 0.5450693071
C -4.1023070271 1.0505504792 -0.1506547591
C -4.6091807854 0.8658260437 -1.4348878046
C -2.9290472582 0.2078273448 1.9166157081
C -1.4533898235 0.6351724849 1.9003606018
N -0.6151443295 -0.4437832703 1.3707170016
C 0.6519039528 -0.2614532292 0.9253970585
C 1.2352926075 1.0103902902 0.7457873532
C 2.5158930984 1.1605568883 0.2404685617
C 3.2853332577 0.0524104463 -0.0878563180
C 2.7290973216 -1.2376127025 0.0853779812
C 1.4457788210 -1.3760885660 0.5756306639
C 3.4788617645 -2.5201052152 -0.2107888313
F 4.1210876624 -2.4772566423 -1.4041446410
F 2.6470427915 -3.5839745216 -0.2712527601
F 4.3941637258 -2.8012919750 0.7400369614
S 4.9440629456 0.4269268879 -0.7073693531
O 5.8815834633 -0.5843558155 -0.2073021259
O 5.1731527128 1.8502203076 -0.4228572887
N 4.9478190334 0.3018428440 -2.3825238044
S 0.2872292512 2.4592998156 1.1650013940
O 0.4224725636 3.4683987415 0.1080101441
O 0.5557159642 2.8252632565 2.5624445335
N -1.2908803591 1.8567683834 1.1055996256
H -4.9374357541 -0.5329357573 -3.0389174784
H -3.9213575590 -2.4364579958 -1.8106311741
H -3.0312240854 -2.1100267790 0.4673656614
H -4.1716962188 2.0264826185 0.3225008823
H -5.0652713344 1.6998914349 -1.9591403308
H -3.4774364200 0.9908998794 2.4474972474
H -2.9962649575 -0.7072421169 2.5153934940
H -1.1518818343 0.8786712358 2.9285353618
H -0.9074820799 -1.3910518722 1.5589109724
H 2.9251462531 2.1559070240 0.1079514958
H 1.0206891162 -2.3646671879 0.7039243398
H 4.7618032845 -0.6489289631 -2.6927989370
H 4.2813512443 0.9505132628 -2.7974548427
H -1.5667749887 1.7219300176 0.1296816129
