44
CONF113
C -4.8243307718 -1.0073172797 2.1313224101
C -3.4160525500 -0.4643227466 1.9929671014
C -2.3497548364 -1.5406052841 1.7991671052
O -2.3150513123 -1.6889047187 0.3677270457
C -2.4517316479 -0.3778672214 -0.1411706638
O -3.3090419420 0.3113936425 0.7649471409
C -3.1806738980 -0.4601121927 -1.4976279556
N -2.3098121796 -0.9049718680 -2.5689848524
C -1.6380642194 -0.1471453304 -3.4598825713
N -0.8406015257 -0.9065367405 -4.2008947068
C -1.0643000702 -2.1534011464 -3.6968978464
N -1.9424856512 -2.2038004967 -2.7032667899
C -1.0849839293 0.3057911802 -0.2622575181
C 0.0709532105 -0.4790681772 -0.2151621584
C 1.3442616226 0.0511378647 -0.3664046288
C 1.4776506354 1.4201354258 -0.5776090595
C 0.3551150605 2.2389580358 -0.6480732718
C -0.9034753042 1.6722293493 -0.5006040330
Cl -2.2674044081 2.7783297831 -0.6539864201
O 2.6871939936 2.0373935109 -0.7980168349
C 3.8352484569 1.4823027295 -0.2528711257
C 3.9169881031 1.1800638072 1.1035161179
C 5.1116371183 0.6961181555 1.6237930102
C 6.2024796002 0.5349482296 0.7759709696
C 6.1295169560 0.8460757989 -0.5760626109
C 4.9288138728 1.3214934042 -1.0944771305
Cl 7.7163362119 -0.0760730444 1.4355307309
H -4.9284452070 -1.5284428323 3.0885248754
H -5.0446978492 -1.7095149980 1.3207927651
H -5.5522911244 -0.1919238123 2.1011906388
H -3.1658904994 0.2017107444 2.8255041248
H -1.3702662967 -1.2187411068 2.1765428010
H -2.6201055153 -2.5064626306 2.2292945535
H -4.0220777848 -1.1497949480 -1.3959746589
H -3.5525765319 0.5320645747 -1.7595908316
H -1.7704127251 0.9250066408 -3.5328486384
H -0.5779093980 -3.0451356879 -4.0722491053
H -0.0411024319 -1.5461856585 -0.0613865693
H 2.2139277537 -0.5945814987 -0.3291827013
H 0.4728920499 3.3016529323 -0.8241972217
H 3.0580443800 1.3219132498 1.7508905557
H 5.1914901698 0.4577452849 2.6782529153
H 6.9908992484 0.7156002405 -1.2209970107
H 4.8400901663 1.5688450153 -2.1467803538
