46
CONF159
C -5.5800335450 2.3205729605 -2.9887471599
C -4.3466498234 1.9301257552 -2.1770834776
C -4.5113626787 2.2569737481 -0.6934143191
C -3.3076694135 1.9033233657 0.1560983936
O -3.1381038901 0.4472416638 0.2028760830
C -2.1767702092 -0.1084616009 -0.5430776426
O -1.3742878579 0.4843852294 -1.2307237412
C -2.2648121686 -1.6325601720 -0.4385763219
C -3.3197127503 -2.1486576151 -1.4069859273
O -1.0257024648 -2.2295009420 -0.8191427712
C 0.0583317808 -2.0566790268 -0.0028618345
C 0.0352202033 -1.3704694754 1.2134773686
C 1.2052590944 -1.2658535402 1.9647638103
C 2.3710439253 -1.8450832649 1.4965533442
C 2.4068604850 -2.5341326515 0.2903476055
C 1.2460582638 -2.6381200133 -0.4604461680
O 3.5287907547 -1.7833426279 2.2868175652
C 4.4225776406 -0.7976451730 2.0201500399
C 5.5951455948 -0.8002906855 2.7894616481
C 6.5808728565 0.1426710893 2.6287925300
C 6.3989665697 1.1408363370 1.6566763281
C 5.2357085257 1.1636929280 0.8773527582
C 4.2550983721 0.2001368969 1.0593179997
C 7.4007640267 2.1284538917 1.4688704983
N 8.2176651694 2.9366268002 1.3138181382
F 5.7457185098 -1.7679340752 3.7160066894
H -6.4675453818 1.7887577205 -2.6284705380
H -5.7775482310 3.3950390930 -2.9062669938
H -5.4506442361 2.0811040568 -4.0485967719
H -4.1569971071 0.8562274233 -2.2985153826
H -3.4618650154 2.4505850938 -2.5647761686
H -4.6829514420 3.3347593848 -0.5706614849
H -5.3978253587 1.7489382816 -0.2922844378
H -2.3885729425 2.3529387678 -0.2276204628
H -3.4544207449 2.1945923534 1.1984466556
H -2.5281885075 -1.9135961499 0.5887449660
H -4.2946159454 -1.7265637802 -1.1522725769
H -3.0636990468 -1.8664331719 -2.4320879398
H -3.3762790756 -3.2374265357 -1.3359728696
H -0.8693262045 -0.9131146738 1.5959171708
H 1.2058966342 -0.7330872830 2.9099632843
H 3.3342594786 -2.9801801740 -0.0540244779
H 1.2429143661 -3.1707240470 -1.4055472974
H 7.4726390887 0.1043327195 3.2438999588
H 5.1009404213 1.9372640706 0.1303087004
H 3.3548525756 0.2202769474 0.4565179263
