32
CONF3
C -6.3716985400 -0.3647546466 1.6343832185
C -5.0892028994 -0.6296555830 0.9294493876
N -4.9520763346 -1.4591483152 -0.0729680175
C -3.6618889223 -1.5165142353 -0.5026660868
C -2.7551516973 -0.7218244556 0.1597213256
S -3.5965578788 0.1538769575 1.4019351624
C -1.2853124014 -0.6477934174 -0.0146328328
O -0.6139676651 -1.6390005466 -0.2655170044
N -0.7491223211 0.6012450491 0.1777142578
C 0.6387902553 0.8221195054 0.0918609807
C 1.2055724208 1.5096990039 -0.9889205916
C 2.5656487191 1.7456214935 -1.0850062543
C 3.3924682208 1.2586930070 -0.0803495343
C 2.8906481184 0.5656255378 1.0134146967
C 1.5162120207 0.3718813276 1.0834803371
Br 0.8261570897 -0.5096032448 2.6220310570
O 4.7403229015 1.5418274983 -0.2852979113
C 5.6847043660 1.1327502112 0.6010778009
F 5.7212472646 -0.2081743073 0.7415371224
F 6.8648333589 1.5406165223 0.1312114897
F 5.5096032492 1.6641513410 1.8291671303
Br 0.0745316141 2.1404618199 -2.3844124635
C -3.3417822531 -2.4203245251 -1.6650578870
F -4.4432666325 -2.6833817940 -2.3973957517
F -2.4304035849 -1.8702688497 -2.4969105258
F -2.8472936727 -3.6142901049 -1.2547126734
H -7.1218335879 -0.0222234503 0.9151728530
H -6.7391210670 -1.2901858621 2.0892185948
H -6.2546718306 0.3896660749 2.4135714887
H 2.9906501979 2.2812853645 -1.9245092088
H 3.5214357175 0.1915148680 1.8071224443
H -1.3579274929 1.4064681137 0.1058487765
