56
CONF60
C -4.3678613048 1.6378125155 -1.4004217879
C -3.1081176189 2.4940157780 -1.2728720638
C -3.0822919570 3.5915770173 -2.3382334823
C -1.8502595656 1.6137635899 -1.3833341131
C -1.7846235261 0.4741059047 -0.3779847965
C -1.7686316768 0.7401966112 0.9914486047
C -1.6706295425 -0.2858838662 1.9248325775
C -1.5592960800 -1.5975819177 1.4735931633
C -1.5716026400 -1.8877703579 0.1139849661
C -1.6839157643 -0.8514950400 -0.8020896864
O -1.4530631524 -2.6917825982 2.3198893103
C -0.9203852104 -2.4777695598 3.5699139527
F -0.4830140429 -3.6770985529 4.0120367564
F -1.8908254976 -2.0574894115 4.4425348721
C -0.5798563553 2.3987931331 -1.1271688610
O -0.4580841445 3.3341963618 -0.3786222652
O 0.4729000644 1.8194654890 -1.7830799714
C 1.7879715450 2.1387627131 -1.2490026217
C 2.1227739331 3.5541034080 -1.4082773348
N 2.4529058875 4.6476422746 -1.5762237298
C 1.9295420500 1.6143819620 0.1661514659
C 2.0975863804 2.4545742247 1.2630404754
C 2.1810765465 1.9030607186 2.5375063143
C 2.1039319154 0.5282245348 2.7220196667
C 1.9298279595 -0.3002495313 1.6165698158
C 1.8365903311 0.2329148285 0.3360793362
O 1.7858235846 -1.6485093631 1.8703196753
C 2.3032903948 -2.5755122237 0.9780599191
C 3.5317584975 -2.3884136720 0.3498038341
C 4.0233979824 -3.3903084381 -0.4803828458
C 3.3052576679 -4.5674306298 -0.6734461788
C 2.0875019173 -4.7436844927 -0.0226572351
C 1.5771870358 -3.7483281268 0.8041384823
H -4.3951677991 1.1310915094 -2.3728329580
H -4.4190103161 0.8739840773 -0.6195661939
H -5.2624195096 2.2631780888 -1.3261133412
H -3.0952446830 2.9681425452 -0.2836722209
H -3.0809084359 3.1520788425 -3.3429432746
H -2.2012629067 4.2318177225 -2.2389048876
H -3.9688414839 4.2271382038 -2.2550936795
H -1.7952713845 1.1844798621 -2.3906942562
H -1.8243884715 1.7663981061 1.3404989500
H -1.6943477885 -0.0555350539 2.9833129761
H -1.4842628823 -2.9189687447 -0.2092417839
H -1.6837079322 -1.0780049258 -1.8642056032
H -0.0996185351 -1.7506012711 3.5720078335
H 2.4569795679 1.5803975258 -1.9129302253
H 2.1473137500 3.5281071608 1.1204612887
H 2.3115898991 2.5518860768 3.3970183116
H 2.1824485856 0.0841126958 3.7086478178
H 1.6750888894 -0.4207844335 -0.5149442346
H 4.0951504503 -1.4765185625 0.5147734934
H 4.9822115740 -3.2513134534 -0.9694739233
H 3.6971834150 -5.3453586109 -1.3195214817
H 1.5255204002 -5.6622081534 -0.1574903765
H 0.6341011786 -3.8718027022 1.3246822552
