39
CONF9
C -2.2479806559 -3.9598332336 0.7312453281
O -2.8325663321 -2.6499471506 0.7495018617
C -2.0736804027 -1.6191949093 0.2877640714
C -0.7619446600 -1.7487289911 -0.1834814054
C -0.0737690450 -0.6234018812 -0.6358777662
C -0.6786978782 0.6334184743 -0.6142768585
C -1.9872840156 0.7645907332 -0.1444214077
C -2.6878842929 -0.3600078374 0.3190090878
O -3.9538236631 -0.2198319107 0.8374342799
C -4.9887178164 -0.3821654026 -0.1547161491
O -2.6709250283 1.9397292309 -0.0842697668
C -1.9866911798 3.1211727266 -0.5247400319
C 1.3435707237 -0.7685258684 -1.1649554699
C 2.2883029879 0.2947468806 -0.6818628483
C 2.8919359494 1.1987520857 -1.5322889466
N 3.7490356475 2.1598366297 -1.1481474632
C 3.9994617672 2.1984332224 0.1733443511
N 3.4780619375 1.3870703704 1.1098302185
C 2.6247711242 0.4418401934 0.6884425915
N 2.1272536738 -0.4077710086 1.6271327175
N 4.8293165929 3.1942180107 0.6192925461
H -3.0132569423 -4.6272304627 1.1281536509
H -1.9895358652 -4.2605860328 -0.2906115045
H -1.3563088664 -4.0016155934 1.3672568284
H -0.2724921869 -2.7152730894 -0.2063329236
H -0.1219250129 1.4954926307 -0.9612041084
H -5.9401373697 -0.2536660449 0.3650849266
H -4.8902374112 0.3764147688 -0.9400041443
H -4.9416536260 -1.3832901287 -0.5988159945
H -1.0908528776 3.3039561893 0.0798524377
H -1.7105477659 3.0446885235 -1.5827060419
H -2.6955841225 3.9381461946 -0.3880304151
H 1.3217663186 -0.7367347275 -2.2615706336
H 1.7183815443 -1.7633515352 -0.8913676211
H 2.6760665395 1.1472870672 -2.6002768740
H 2.2513284210 -0.1468033501 2.5938038759
H 1.2906145256 -0.9294005257 1.4128204291
H 5.2363846146 3.0657187455 1.5326428722
H 5.4290156311 3.6175919165 -0.0717913825
