41
CONF2
C 6.1092123911 -0.6408930100 -0.4707900736
C 4.7080846027 -0.1132071260 -0.3546876353
C 3.7015932521 -0.8825162514 0.2437719327
C 2.4078648404 -0.4016906746 0.3757259687
C 2.0648676320 0.8806989031 -0.0914575100
C 3.0839253998 1.6605949428 -0.6653976985
C 4.3742397557 1.1679942359 -0.8045963258
C 0.7309053382 1.4459330725 0.0155091021
C -0.4538762158 0.8214903932 0.1574871277
C -0.8584487198 -0.6302743379 0.2119867705
C -1.2136471730 -0.9090421423 1.6963567116
C -2.5087086855 -0.0717164535 1.8936188747
C -2.8141231837 0.5248588678 0.4801418877
C -1.7273496324 1.5796881048 0.3089113043
O -1.8731828003 2.7940655095 0.3247286535
C -2.2638929674 -0.5895423007 -0.4672777603
C -2.2049290793 -0.1592257893 -1.9351328034
C -3.0256904432 -1.9108151808 -0.3815232196
C -4.2257700444 1.0229791131 0.2887839542
H 6.1106312626 -1.6868596685 -0.7919822703
H 6.6968016638 -0.0542633350 -1.1810288175
H 6.6178173813 -0.6003461844 0.4999258166
H 3.9431209231 -1.8732386143 0.6200966758
H 1.6650912662 -1.0129209578 0.8744673735
H 2.8482957399 2.6617548371 -1.0161737533
H 5.1385689208 1.7886094177 -1.2643310649
H 0.6794268129 2.5337795399 -0.0544229838
H -0.1561641972 -1.3329211744 -0.2404518116
H -0.4083280523 -0.5968673726 2.3663586659
H -1.3911119903 -1.9751311236 1.8616043594
H -2.3906870158 0.7223770320 2.6375486411
H -3.3532042505 -0.6904210469 2.2116726539
H -1.6984936914 -0.9265197958 -2.5307751778
H -3.2156061117 -0.0356772161 -2.3376621500
H -1.6673838077 0.7836974182 -2.0763123300
H -4.0048936870 -1.8104615810 -0.8614014712
H -3.1886223998 -2.2546564528 0.6413126072
H -2.4716124124 -2.6903295498 -0.9167056425
H -4.4575234967 1.8037291837 1.0203173917
H -4.3636349949 1.4498842874 -0.7097159514
H -4.9435612302 0.2074023905 0.4215004703
