80
CONF57
C -4.9406726116 -0.2347333731 -0.9041158332
C -5.8754215358 0.9505513839 -0.6934080857
C -7.1809602408 0.2535502204 -0.2867528827
C -6.7186071429 -0.8814430717 0.6339959003
N -5.3540019300 -1.1755076638 0.1539214781
C -4.5926745412 -2.1184924712 0.7385944059
O -5.0197789247 -2.8504539519 1.6382630538
C -3.1362281129 -2.2655133182 0.2847028377
C -2.1623340351 -2.1437015759 1.4892365974
C -2.1087286971 -3.3626017520 2.3701623705
C -1.6251656546 -4.5754333055 1.8681064869
C -1.5562152199 -5.7046576557 2.6791647762
C -1.9629412739 -5.6357947868 4.0109442639
C -2.4348878513 -4.4291312720 4.5232548197
C -2.5066483719 -3.3026948906 3.7071212578
N -2.8026582748 -1.3070577632 -0.7555016150
C -1.7768855084 -1.4162078245 -1.6192313341
O -0.9850912074 -2.3418286401 -1.7317189067
C -1.8374192770 -0.1672772732 -2.5223589225
C -2.1483666042 -0.5597406342 -3.9549923091
N -0.6067606854 0.5872513482 -2.4838817324
C 0.0220202785 0.9288696255 -1.3330225486
O -0.4263478972 0.6088701737 -0.2225508087
C 1.3197911481 1.6910815157 -1.4768109822
C 1.2819712829 2.9567703432 -0.6220458905
N 2.5396829992 3.7030055418 -0.7426116398
C 2.3874936266 4.9822692585 -0.0367590977
C 3.6736352743 2.9094037549 -0.2269161370
C 4.9776962467 3.7433149513 -0.2559054392
C 6.1342440899 2.8803425238 0.1308422752
C 7.3644507751 3.1074034733 0.6991895699
N 8.0301917874 1.8944340009 0.8485073683
C 7.2318172847 0.8717176778 0.3907156784
C 7.3835408072 -0.5155484377 0.3199374704
C 6.3122187417 -1.2340663262 -0.2054915167
C 5.1205853027 -0.6188792138 -0.6537738033
C 4.9726304766 0.7626050706 -0.5927570640
C 6.0435575992 1.4793914278 -0.0635289365
C 3.7944118278 1.5955620146 -1.0561742496
C 2.4867206482 0.8067473826 -1.0259539332
O -2.9400661941 0.5984381288 -1.9850629517
C -3.4427168323 0.0013048453 -0.7954200002
O -3.1606003984 0.7658772069 0.3286719032
H -5.1137037976 -0.6843518614 -1.8921383758
H -5.9725305803 1.5587078808 -1.5949603633
H -5.5044995646 1.5765061161 0.1235403815
H -7.6766492008 -0.1579295705 -1.1720677571
H -7.8791863016 0.9249291126 0.2167698710
H -7.3500972857 -1.7724017826 0.5710166459
H -6.6706422624 -0.5672913583 1.6836765051
H -3.0353851787 -3.2667479058 -0.1523055236
H -2.4262341293 -1.2587026841 2.0749455714
H -1.1700707315 -1.9692466776 1.0582676175
H -1.2956341661 -4.6347611004 0.8334392905
H -1.1785587103 -6.6383596865 2.2730715687
H -1.9079227565 -6.5151521764 4.6452272635
H -2.7502235800 -4.3647983463 5.5604686533
H -2.8836993600 -2.3658861106 4.1080001777
H -3.0788307684 -1.1305295162 -3.9802188470
H -2.2640863151 0.3411275271 -4.5647568027
H -1.3377799864 -1.1718714432 -4.3589222407
H -0.2314087960 0.9152540344 -3.3624309815
H 1.4707863062 1.9764328633 -2.5245901541
H 1.0758419133 2.6735012582 0.4279924566
H 0.4640365704 3.6044757791 -0.9581750890
H 2.3234989064 4.8562927175 1.0603960447
H 3.2161017532 5.6567346606 -0.2619491143
H 1.4669401850 5.4648445236 -0.3779719009
H 3.4835756605 2.6158967413 0.8285336697
H 4.8977963848 4.5958451268 0.4228200628
H 5.1037986381 4.1465327492 -1.2716092187
H 7.8374671591 4.0259867970 1.0185246221
H 8.9483660670 1.7907002464 1.2491075208
H 8.2844361203 -1.0172442184 0.6586183805
H 6.3929811564 -2.3150708010 -0.2722585060
H 4.3299958882 -1.2497728490 -1.0469486644
H 3.9857231193 1.9042318451 -2.0970683917
H 2.2964173254 0.4544391262 -0.0039167845
H 2.5574761954 -0.0722540230 -1.6749587851
H -2.1825774217 0.8319371314 0.3604548409
