41
CONF26
C -4.3101810185 -0.1095293479 2.6011040149
C -4.2680130345 -1.4131754957 2.1128885285
C -3.8618267245 -1.6552476226 0.8025545525
C -3.4877311945 -0.6004265365 -0.0373672512
C -3.5447737160 0.7057359885 0.4607417128
C -3.9512350960 0.9497154659 1.7697316896
C -3.0123421670 -0.8796385756 -1.4402049870
C -1.4924619305 -1.0784685735 -1.5532902558
N -0.7925566103 0.1775010830 -1.2691544956
C 0.5170582400 0.2533249864 -0.9357453627
C 1.3166038720 -0.8771228215 -0.6613750853
C 2.6427082403 -0.7585628549 -0.2802695773
C 3.2425435665 0.4891483554 -0.1737171799
C 2.4658482355 1.6430764315 -0.4387027198
C 1.1419936833 1.5143041495 -0.8069667457
C 3.0076040509 3.0560282191 -0.3668152807
F 3.7668285281 3.3635775249 -1.4412149194
F 3.7572355235 3.2672543029 0.7422505727
F 2.0129626667 3.9701703588 -0.3247055950
S 4.9852337399 0.4642701213 0.3026604743
O 5.6882462840 1.5470701144 -0.3961901041
O 5.4371624835 -0.9255223133 0.1388689131
N 5.1162906133 0.7838396419 1.9464081796
S 0.5863145980 -2.4953352191 -0.7947401995
O 0.9799005874 -3.3199128713 0.3550162345
O 0.7867127196 -3.0104186079 -2.1571223492
N -1.0565466601 -2.1375005735 -0.6369389567
H -4.6294152580 0.0814046143 3.6209352296
H -4.5573042188 -2.2437012320 2.7494674891
H -3.8415074255 -2.6732205218 0.4224587442
H -3.2827443168 1.5401189994 -0.1837916342
H -3.9934164183 1.9698021477 2.1390959114
H -3.4789178641 -1.7897523240 -1.8271181319
H -3.2823780156 -0.0579001650 -2.1122947687
H -1.2611940761 -1.4163221725 -2.5727583684
H -1.2485165126 1.0317060778 -1.5554277571
H 3.2209917423 -1.6514563483 -0.0703720217
H 0.5480928594 2.3983753101 -1.0066294438
H 4.6174435322 0.0818698275 2.4912904997
H 4.7770222561 1.7146864767 2.1787890219
H -1.2617335581 -1.9097661208 0.3392909248
