71
CONF144
C 7.2399952379 -2.2809074093 -0.0627915542
C 7.0671471137 -1.7885491987 1.3448014866
C 5.9099456369 -1.1056941840 1.7535214582
C 5.7260096663 -0.6943307925 3.0849881237
C 6.7351520051 -0.9653830608 4.0091805965
C 7.8997962240 -1.6198290936 3.6195513918
C 8.0593032454 -2.0271649079 2.3005410815
C 4.4786807717 0.0356511949 3.4973876289
N 4.8719248549 -0.8463590712 0.8190389483
C 4.9874645476 -0.0569049946 -0.2780284985
O 6.0167759385 0.5288964872 -0.6120805651
C 3.7252829639 0.0136039174 -1.1347798859
N 2.5048704023 -0.3002940835 -0.4022410753
C 2.0371382042 0.8588260292 0.3704910970
C 0.8193903380 0.4763571239 1.1931749009
N -0.2648287907 0.0160505062 0.3215228638
C 0.1995577047 -1.1310687194 -0.4643230504
C 1.4258942805 -0.7605609324 -1.2841954896
C -1.4506179478 -0.3141438929 1.1204442675
C -2.6890905823 -0.6357571027 0.2865717352
C -3.0283693785 0.4543711581 -0.7275004939
C -4.3618112099 0.2097511335 -1.4556496144
C -5.5793514726 0.1761909673 -0.5459501574
C -6.6714943595 -0.6204964086 -0.9051280131
C -7.8330617097 -0.6527887297 -0.1394724177
C -7.8828722415 0.1301772342 1.0009885298
C -6.8274608374 0.9299412793 1.4006694529
C -5.6756146249 0.9452299475 0.6168338039
F -9.0101782987 0.1069429462 1.7616610687
C -4.5486224604 1.2253985795 -2.5718308847
C -4.8268820475 2.5660038342 -2.2876510105
C -4.9627326237 3.5053344560 -3.3048806874
C -4.8183960998 3.0781852003 -4.6147466773
C -4.5441083379 1.7634429602 -4.9439511545
C -4.4096484701 0.8412472617 -3.9072437110
F -4.9564817324 3.9890902343 -5.6156839771
H 6.2992429859 -2.6690353877 -0.4656164792
H 7.5592058610 -1.4689840330 -0.7246261092
H 7.9920573971 -3.0724160333 -0.0987091490
H 6.6062611834 -0.6493790439 5.0404696278
H 8.6797274997 -1.8199723821 4.3478626624
H 8.9599669710 -2.5554854735 2.0005273606
H 4.5292165475 0.3151802921 4.5518441079
H 3.5812649522 -0.5776392619 3.3526160881
H 4.3438598221 0.9456539434 2.9029081422
H 3.9251773905 -1.1618379664 1.0135219463
H 3.7063938902 1.0084627965 -1.6113659668
H 3.8645307852 -0.7238897119 -1.9370115669
H 2.8397232174 1.1929301486 1.0378286959
H 1.7822969364 1.7004435397 -0.3014123745
H 0.4733869477 1.3503922631 1.7572918289
H 1.1091688918 -0.3056482701 1.9251737125
H 0.4434149985 -1.9919601023 0.1912992715
H -0.5930156070 -1.4476881215 -1.1503770750
H 1.1507930920 0.0200644348 -2.0191675871
H 1.7721073708 -1.6410263571 -1.8369495058
H -1.6704331879 0.5596279835 1.7487191784
H -1.2428817643 -1.1605906470 1.8059644180
H -2.5743240564 -1.5954040902 -0.2330611254
H -3.5236903475 -0.7698531196 0.9851065798
H -3.0392573967 1.4367839176 -0.2371296357
H -2.2389468320 0.5105471561 -1.4849559194
H -4.2955000543 -0.7763025658 -1.9328236883
H -6.6145789395 -1.2269505435 -1.8052313248
H -8.6800839949 -1.2716203266 -0.4154273454
H -6.9047849279 1.5222823590 2.3060928176
H -4.8433983815 1.5653181540 0.9336176869
H -4.9458946285 2.8868610034 -1.2570569170
H -5.1798960166 4.5466077512 -3.0921547072
H -4.4411876758 1.4701346111 -5.9831722357
H -4.1926290722 -0.1960665955 -4.1463764260
