41
CONF14
C -3.3059130485 -1.6377499287 -0.6279771118
C -2.3651399377 -1.2875118439 -1.7864908089
C -1.5963828693 -2.5188910200 -2.2561939762
N -1.4033708590 -0.2237439224 -1.4627051358
C -2.0000482631 1.0767877927 -1.1564857878
C -0.9963254439 2.2080988373 -1.4614066035
O -0.3300252124 1.9506025097 -2.6831216811
C -0.0133945290 2.4720921996 -0.3290556810
O 0.6707100186 1.2570167973 -0.0120941296
C 1.6544319210 1.3001085446 0.9335172734
C 1.9613355724 2.4359701321 1.6850416623
C 2.9728600031 2.3788446894 2.6413263448
C 3.6779344674 1.2020912967 2.8524692133
C 3.3655218791 0.0777374493 2.0922220692
C 2.3633746314 0.1015858269 1.1279012458
C 2.0275844261 -1.1271236829 0.3301271771
C 0.8637710390 -1.9267629795 0.8564838647
C 0.0811833757 -1.5929221530 1.8787329110
H -4.0142133958 -2.4200545046 -0.9206267716
H -2.7270839744 -2.0044793262 0.2280302226
H -3.8843620624 -0.7682765464 -0.3010416172
H -2.9682558652 -0.9154286917 -2.6279582254
H -0.9787712125 -2.9162512063 -1.4427286186
H -0.9405008633 -2.2698979497 -3.0948873203
H -2.2841338773 -3.3102343817 -2.5687657024
H -0.8103885322 -0.5187595981 -0.6901412054
H -2.8621991272 1.2094309802 -1.8217897301
H -2.3640651983 1.1765994692 -0.1199651852
H -1.5633045386 3.1436327571 -1.5809616904
H -0.2971553702 0.9762068517 -2.7284645638
H -0.5580297210 2.8379499247 0.5559211734
H 0.7093804564 3.2351223460 -0.6487172041
H 1.4235525848 3.3634352738 1.5347660343
H 3.2040935659 3.2673406527 3.2202089571
H 4.4663543073 1.1575952940 3.5957244464
H 3.9126603032 -0.8484038906 2.2472881386
H 1.8167311668 -0.8541473081 -0.7133009708
H 2.9063809801 -1.7840292190 0.2959559729
H 0.6800434107 -2.8633137629 0.3298666082
H 0.2382229215 -0.6727199775 2.4349208933
H -0.7330626323 -2.2369073297 2.1943755019
