30
CONF27
C 3.8167220483 0.7036390965 0.7696318970
C 2.7579884922 0.3868282027 -0.2850518721
C 1.9589686547 -0.8706637087 0.0555668487
C 0.9627689652 -1.2989427750 -1.0273248791
C -0.0926592208 -0.2489754291 -1.3942426396
C -0.9501161513 0.2307423387 -0.2244306256
C -1.7245960749 -0.8928632825 0.4919999692
C -2.9324141005 -0.1768929852 1.1005380378
C -3.3689725480 0.7608336282 -0.0314947086
C -2.0424905796 1.2575264181 -0.6496788694
H 4.3773590797 1.6094769404 0.5196335975
H 3.3553680297 0.8554438674 1.7516910519
H 4.5329754870 -0.1196288745 0.8648340005
H 3.2371269676 0.2564814697 -1.2649778623
H 2.0797631558 1.2430127367 -0.3860991515
H 2.6597529154 -1.6978665930 0.2316385218
H 1.4348886311 -0.7163401067 1.0085934783
H 0.4578526030 -2.2164522998 -0.6984987689
H 1.5200905265 -1.5666912651 -1.9349899505
H -0.7583417532 -0.6740131442 -2.1590510717
H 0.3919867899 0.6171352589 -1.8639184750
H -0.2961005216 0.7124596447 0.5146836254
H -1.1168550856 -1.4251310393 1.2306377258
H -2.0697072365 -1.6308903399 -0.2461808786
H -2.6149577054 0.4075832732 1.9738531263
H -3.7243547327 -0.8586941931 1.4259985363
H -4.0119626503 1.5782601214 0.3082151205
H -3.9373686635 0.1867217218 -0.7727782059
H -2.1113606775 1.3301203762 -1.7404401631
H -1.7913553431 2.2577809358 -0.2826991061
