110
CONF273
C -3.2112336325 1.2860202270 -1.6199047215
N -4.0970059076 1.4199340754 -2.7910259089
C -3.8422473313 0.2487857902 -3.6476393438
C -3.3389475263 -0.8443403637 -2.6806182846
C -3.3789507981 -0.2042643712 -1.2670529773
C -2.3176674348 -0.7442384889 -0.3450744935
C -0.9409768506 -0.6916092881 -0.4527861221
C -0.1196684718 -1.2757565129 0.5158907461
C -0.7517022848 -1.9351339550 1.5932176024
O 0.1025300107 -2.4662739119 2.5084266972
C -0.4331523898 -3.1052335767 3.6619026305
C -2.1410611893 -2.0246088300 1.7102314659
C -2.9154442668 -1.4085769393 0.7249293039
N -4.2824330220 -1.3404218252 0.6535500317
C -5.1333376699 -2.2995644173 1.3294602633
C -4.7197391040 -0.5422050112 -0.4950963365
C -5.5287093049 0.7409857128 -0.0919011458
O -6.2544640551 1.2144637307 -1.2112321299
C -4.5338182566 1.7461483831 0.5152984176
O -5.1668727457 2.8369930400 1.1704268948
C -3.5278676370 2.3200062972 -0.5191133859
C -2.2389048103 2.6624868474 0.2909279922
C -1.1374189208 3.4132055372 -0.4510220420
C -4.0259003822 3.6007983522 -1.1432397712
C -4.1642432446 3.8050460563 -2.4503392087
C -3.9881393822 2.7101748970 -3.4568216399
C -6.5685630085 0.3867533221 0.9862388024
N -7.7768630857 0.0166872880 0.4922580681
O -6.3035453114 0.4024673190 2.1847209187
C 1.4077653850 -1.1705509677 0.4915488478
C 1.9268123813 -0.7316172938 -0.9194802511
C 3.4512359125 -0.6431145346 -0.9005280986
C 3.9904877749 0.7918509796 -0.8083335591
N 5.3578235588 0.7774580736 -0.3243647268
C 6.2145688514 -0.0243016304 -1.1897045710
C 5.7081706368 -1.4301574587 -1.5811051151
O 5.8465933974 -2.2130026709 -0.3766624540
C 6.5985292310 -2.0709995051 -2.6584985556
C 6.5817327518 -1.4356155653 -4.0493970310
C 4.2249251055 -1.3667561689 -1.9979197716
C 5.4779463244 0.6624918708 1.1350962631
C 4.5297659064 -0.2677674264 1.9616870205
C 3.1088302605 0.2184164412 2.0968690916
C 1.8889514766 -0.1565284487 1.5369417837
N 0.9152543345 0.7374661242 1.9702381771
C 1.4497104003 1.6598630698 2.8245095870
C 0.8464790079 2.7106792857 3.5122653540
C 1.6599685716 3.4892544379 4.3225179823
C 3.0342075499 3.2177361145 4.4443479722
C 3.6245698521 2.1682802113 3.7566889154
C 2.8301417053 1.3652619503 2.9247422752
C 1.9961114767 -2.5757729141 0.7319417035
O 2.8946960010 -2.8807936239 1.4755484870
O 1.3966530217 -3.4660381314 -0.0990388110
C 1.8695561543 -4.8177787164 0.0326983465
H -2.1610914031 1.4290026457 -1.9364009124
H -3.0736298196 0.4785429760 -4.4040780726
H -4.7586839324 -0.0306457901 -4.1801598703
H -2.3055720922 -1.1152802704 -2.9144161994
H -3.9315420552 -1.7614592810 -2.7207617859
H -0.4961353398 -0.1808428555 -1.2996714934
H -1.0370538784 -3.9801984418 3.3885598678
H 0.4305793985 -3.4237328925 4.2466008126
H -1.0391831343 -2.4073607206 4.2529917651
H -2.6063426912 -2.5275694089 2.5473681203
H -5.2124204152 -2.0851227613 2.4016035007
H -6.1415131795 -2.2493979794 0.9122014224
H -4.7511031701 -3.3225806835 1.1927285132
H -5.3933954273 -1.1299196700 -1.1360196994
H -5.5860486159 1.3439982068 -1.9431221188
H -3.9544285995 1.1636079932 1.2485666916
H -5.5762651186 2.4659343247 1.9638189602
H -2.5624138880 3.2529389459 1.1562058035
H -1.8410083119 1.7173322325 0.6787824011
H -1.4838006830 4.3864842452 -0.8091522415
H -0.7637880772 2.8555440845 -1.3160834376
H -0.2868893222 3.5784073522 0.2179912511
H -4.2071704192 4.4136540727 -0.4470782992
H -4.4471062054 4.7842925817 -2.8261088019
H -3.0153214542 2.8103945753 -3.9827541805
H -4.7673904943 2.7762635869 -4.2284293015
H -8.5344332616 -0.0805039606 1.1493235778
H -7.9767794044 0.2652058446 -0.4654281400
H 1.4966342791 0.2491860897 -1.1539396248
H 1.5597145378 -1.4466230179 -1.6640265489
H 3.7775563177 -1.1332545119 0.0110358227
H 3.3772778935 1.4017467372 -0.1363796813
H 3.9581047369 1.2616166959 -1.8073885768
H 6.3547083964 0.5428891395 -2.1224560868
H 7.2006849894 -0.1369799365 -0.7243755292
H 5.3845456088 -3.0515856811 -0.4998341248
H 7.6232028102 -2.0829227747 -2.2663751931
H 6.2940654994 -3.1241136886 -2.7448675697
H 6.8820934558 -0.3842677476 -4.0246515421
H 5.5929126186 -1.4923250471 -4.5136678199
H 7.2815518087 -1.9581713412 -4.7087207336
H 3.8488972781 -2.3910101288 -2.1535082759
H 4.1250636688 -0.8390645383 -2.9556975527
H 6.5066403146 0.3532335647 1.3509509675
H 5.3540751775 1.6765393578 1.5438689561
H 4.9561836494 -0.2563113649 2.9751513519
H 4.6001596857 -1.3011886321 1.6321655379
H -0.0627489145 0.6233685010 1.7629255458
H -0.2169453497 2.9113606733 3.4189103073
H 1.2286392785 4.3185242793 4.8736858351
H 3.6414915626 3.8431581979 5.0907080651
H 4.6865312873 1.9731670707 3.8686445734
H 2.9351473091 -4.8813829173 -0.2077510459
H 1.7172119409 -5.1752614635 1.0549383343
H 1.2813925466 -5.4040083327 -0.6736443237
