45
CONF68
C -4.9939754712 2.2046877071 -0.9791136527
O -3.9539713044 1.2492321734 -1.3008794302
C -3.6812197689 0.3620956602 -0.3206146532
O -4.2080813342 0.3450941658 0.7778555316
N -2.6909812390 -0.5002242346 -0.7227448288
C -2.1704430898 -0.6864989415 -2.0312085077
C -3.0317571228 -0.9903746561 -3.0859129273
C -2.5192111125 -1.1945817422 -4.3607107162
C -1.1438620060 -1.1256723323 -4.5708862216
C -0.2860059100 -0.8426048756 -3.5123041050
C -0.7843186278 -0.6082616792 -2.2299585505
C 0.1245378071 -0.3031475116 -1.0759539596
O 1.3056209992 0.3468135623 -1.5898950264
C 2.2506404992 0.6354795754 -0.6769537530
N 2.1295249969 0.3514289925 0.6148653244
N 3.2973705545 0.8002372554 1.1644306560
C 4.1177360221 1.3574050711 0.2261748406
C 3.4763256401 1.2695076809 -0.9856112271
C 3.5163591515 0.6775198862 2.5508342814
C 2.4357603717 0.4524206011 3.4077743161
C 2.6468224354 0.3343147385 4.7757737167
C 3.9368836755 0.4505695119 5.2778893067
C 5.0215098759 0.6725572039 4.4380414541
C 4.8104436927 0.7774430650 3.0692234487
Cl 4.2048627217 0.3064969066 7.0115296683
O -2.2486872263 -1.4054359046 0.2465426066
C -2.9938326477 -2.6433222897 0.1583955662
H -5.9325734257 1.6869327542 -0.7681514122
H -4.6993856305 2.8111568134 -0.1195439401
H -5.0918230977 2.8253552959 -1.8688791898
H -4.0979208093 -1.0577042264 -2.8968987553
H -3.1900772358 -1.4241885644 -5.1820430418
H -0.7354052666 -1.2967830693 -5.5617141001
H 0.7832810995 -0.7884334105 -3.6825434559
H 0.4171407782 -1.2221019684 -0.5520902894
H -0.3692322670 0.3536189026 -0.3500991802
H 5.0718537570 1.7915196306 0.4826979710
H 3.8241649984 1.6135088655 -1.9468060088
H 1.4330864836 0.3754266724 3.0072305309
H 1.8086832114 0.1612788712 5.4411819386
H 6.0256251802 0.7480258231 4.8391352830
H 5.6638333124 0.9207738294 2.4171707393
H -2.8530935784 -3.1086686247 -0.8234899487
H -2.5701513195 -3.2801012300 0.9371736401
H -4.0560576937 -2.4619351717 0.3510856645
