38
CONF16
C -5.6265978982 -1.8204526517 -0.9463489015
C -4.9309754090 -1.1444755842 0.2169218859
O -3.5172545913 -1.4906296423 0.2525493970
C -2.7141120107 -0.7772870692 -0.5599216194
O -3.0879226654 0.1253660635 -1.2771033722
C -1.2872624669 -1.2626268452 -0.4650093472
C -0.3591905605 -0.3267868182 -1.2244470553
C -0.3435437150 1.1185903124 -0.7393760928
O 0.0471015030 2.0452855037 -1.4099174059
O -0.7803422807 1.2023954637 0.5250920286
C -0.7776236773 2.5289476704 1.1221697025
C -2.0453268110 3.2734308304 0.7604564397
S 1.3875341968 -0.9604589052 -1.3163949722
P 2.2098280905 -0.5220917370 0.6042449944
S 1.3352792822 -1.2155088022 2.1776776536
O 2.4174332714 1.0683689242 0.6662819161
C 3.1460113476 1.7816362561 -0.3683471811
O 3.7176336318 -1.0322733090 0.2985220348
C 4.0557874483 -2.4271266418 0.4717735714
H -5.4912462964 -2.9046833954 -0.9006869208
H -6.6991985866 -1.6057378395 -0.9069407683
H -5.2378597506 -1.4497710020 -1.8976423450
H -5.3142343003 -1.4983888243 1.1767520188
H -5.0243177563 -0.0561317573 0.1625131415
H -0.9958211157 -1.3553870752 0.5840233701
H -1.2374376437 -2.2689746278 -0.8964551134
H 0.1167771366 3.0586771589 0.7837736988
H -0.7040291018 2.3342879514 2.1943584049
H -2.0560865078 4.2445419365 1.2654548270
H -2.0998130208 3.4409245064 -0.3176609020
H -2.9277136203 2.7091969988 1.0746528754
H 4.1979789529 1.4859528121 -0.3526126400
H 3.0421700181 2.8376897350 -0.1186045359
H 2.7002875760 1.5882718130 -1.3474346019
H 5.1304572821 -2.4944183647 0.2986118484
H 3.8103355714 -2.7510856954 1.4868145672
H 3.5208578670 -3.0443168177 -0.2571099063
H -0.6447329037 -0.2757627349 -2.2795287996
