41
CONF3
C 3.5969836456 3.0193923230 -3.8088592916
C 3.0485785267 2.1271560088 -2.7469513065
N 2.1343528859 1.2186414751 -3.1240252817
C 1.6982311332 0.4274369888 -2.1381515168
N 2.0957899162 0.4793355799 -0.8616873565
C 3.0020145185 1.4246606143 -0.6089905594
N 3.5170651874 2.2771244177 -1.5022654899
O 3.4647087748 1.5709876966 0.6260319263
C 2.9529592932 0.6767551838 1.6491957095
N 0.7538200101 -0.5065289124 -2.5091271119
C 0.0507538878 -1.4594743486 -1.7672804762
O -0.8083951735 -2.1416482759 -2.3017010260
N 0.4123882335 -1.5657899832 -0.4418287007
S -0.5114695376 -2.4659366770 0.6692888541
O 0.0656123985 -2.1019669855 1.9701249130
O -0.5285495409 -3.8628188868 0.2341221957
C -2.1893015304 -1.8266427397 0.5819327680
C -3.1445736977 -2.6136598441 -0.0498254701
C -4.4758790550 -2.2087032429 -0.0377916546
C -4.8418129230 -1.0410436186 0.6224900073
C -3.8808699913 -0.2671362789 1.2667850800
C -2.5376542626 -0.6418780733 1.2432917725
C -1.5294011538 0.2866310306 1.8414165264
O -0.6075970745 0.7741536310 1.2186462204
O -1.8131956342 0.5540537406 3.1184897720
C -0.9176858667 1.4954663041 3.7714713616
H 4.0621622707 3.9027359278 -3.3712190496
H 2.8110596212 3.3038782677 -4.5114887722
H 4.3588996310 2.4685793722 -4.3736843087
H 1.8713872525 0.7967735273 1.7497018192
H 3.4616870096 0.9817008975 2.5624692200
H 3.1983202851 -0.3591568432 1.4014760188
H 0.4855972922 -0.4801308744 -3.4849759819
H 1.0047922018 -0.8200549797 -0.0513189360
H -2.8485818103 -3.5359359113 -0.5343116319
H -5.2239440971 -2.8158771346 -0.5356983726
H -5.8806637439 -0.7293042018 0.6426357971
H -4.1660107587 0.6445759597 1.7806287955
H 0.1017300291 1.1032721370 3.7596685988
H -1.2887190421 1.5812199149 4.7912332382
H -0.9545896246 2.4597971155 3.2600818170
