20
CONF12
C -2.4409109055 1.3526876572 -0.5176949121
O -2.1425860233 -0.0445992724 -0.7693104655
P -0.9453569228 -0.7741127237 -0.0367469895
O -0.7077776523 -2.1586689360 -0.4730875034
O -1.2404049423 -0.4743845709 1.4981791147
C -0.3504883565 -1.0244431097 2.5043176810
O 0.3724916435 0.2023870757 -0.2638988932
C 1.2313288728 -0.0653730708 -1.3140841737
C 2.6625393283 0.3395023434 -0.9093103862
Cl 2.7565165802 2.0374815932 -0.3944549652
Cl 3.7941846279 0.0158624793 -2.2425895097
Br 3.1561849083 -0.8414751202 0.6168382555
Br 0.6496306571 0.9433451309 -2.9399755614
H -1.5620248735 1.9696600423 -0.7237420359
H -3.2450083617 1.6097198634 -1.2069270754
H -2.7704538430 1.4850041668 0.5159593407
H -0.1595725624 -2.0824164519 2.3037614528
H 0.5881803683 -0.4638272934 2.5124790680
H -0.8685769012 -0.9092758512 3.4563159144
H 1.2221045698 -1.1170743648 -1.6160283557
