52
CONF110
C 1.6286921200 2.9988008309 0.3060680236
C 1.9836363163 1.5887141610 -0.1076593397
C 3.3578037200 1.4827832655 -0.7722714955
C 3.6045025245 0.0688352578 -1.3118010184
C 2.4573241313 -0.3613040609 -2.2313145690
C 1.0907670648 -0.0957923857 -1.5925350887
O 0.9496832418 1.1724637030 -1.0478507959
O 0.9437117761 -1.1649482368 -0.6023321782
C 0.0829222085 -0.9837630163 0.4452626171
C -1.2552227903 -0.7267163515 0.3084601006
O -2.0327935470 -0.4788084982 1.4008717928
C -1.5260507887 -0.5494109493 2.6661153191
C -2.4016704886 -0.2824193917 3.7034902599
C -1.9034343454 -0.3674018613 5.0042616091
C -0.5692578687 -0.7052620387 5.2680948363
C 0.2887966064 -0.9630954142 4.2112628524
C -0.1816263083 -0.8965575452 2.8713134785
C 0.6858892183 -1.1129296548 1.7499643763
O 1.9159016856 -1.3778564444 1.8848493632
O 1.5733637812 -1.2736555621 4.4559511141
O -2.7784439398 -0.1064659116 6.0042237811
C -2.0171374129 -0.6699991483 -0.9323344813
C -3.0575006266 0.2623841595 -1.0685806114
C -3.8052408408 0.3056953628 -2.2323748879
C -3.5292947217 -0.5984284154 -3.2749632842
C -2.5107087067 -1.5350023830 -3.1335630658
C -1.7529237599 -1.5716814606 -1.9708457591
O -4.3136911209 -0.4822060605 -4.3798997663
O -4.7985608916 1.2296904164 -2.3509878672
O 2.5798420175 0.4189444449 -3.4205647974
O 3.8437511953 -0.8501806019 -0.2454183696
O 4.3866285354 1.8428958053 0.1473776824
H 0.6372141967 3.0201117469 0.7674402012
H 2.3586615895 3.3658369357 1.0308397438
H 1.6304393521 3.6623212581 -0.5648460289
H 1.9561474447 0.9284949857 0.7708941605
H 3.4022739020 2.1960318802 -1.6038436126
H 4.5257721295 0.0765056593 -1.9053681180
H 2.5447619439 -1.4354058046 -2.4445943679
H 0.2931583086 -0.1843390515 -2.3394154055
H -3.4359735495 -0.0236953771 3.5133655946
H -0.2012457728 -0.7617332801 6.2877986853
H 2.0022181653 -1.3889720370 3.5626342970
H -2.3396535951 -0.1966951772 6.8621680401
H -3.2798868332 0.9686990720 -0.2763188558
H -2.3167780641 -2.2390254866 -3.9377548226
H -0.9713456582 -2.3148345353 -1.8631618875
H -4.0530868018 -1.1338586373 -5.0456220045
H -5.2206871150 1.1303286928 -3.2171160241
H 1.9542121050 0.0758876177 -4.0719852872
H 3.0238131111 -1.0156247697 0.2608807712
H 4.5503265265 1.0526436054 0.6857130989
