45
CONF48
C -5.2050062073 -0.5964269941 -0.1282183777
O -3.9536184131 -0.0768148337 -0.6210304915
C -3.1177683011 -1.0338743822 -1.1047607562
O -3.3853718850 -2.2091427575 -1.1978224460
N -1.8996117181 -0.4677434120 -1.4389076355
C -1.5946621969 0.9202589943 -1.4985380642
C -1.2895366552 1.4889188635 -2.7375698461
C -0.9471219631 2.8295638861 -2.8204212131
C -0.9170184649 3.6117746775 -1.6682231999
C -1.2178333394 3.0414985574 -0.4391942136
C -1.5447721228 1.6884600779 -0.3287721056
C -1.8351899626 1.1012721856 1.0274078706
O -1.0209104644 1.7161055070 2.0501787575
C 0.2658951113 1.3216859750 2.0904682660
N 0.7271162577 0.2568747838 1.4457126053
N 2.0499992440 0.2181631779 1.7725687545
C 2.3977538056 1.2352718138 2.6121779493
C 1.2664678547 1.9801064221 2.8415881190
C 2.8636088019 -0.8264059724 1.2961037789
C 4.2316959092 -0.6235287595 1.1092540754
C 5.0334800887 -1.6636996981 0.6578224944
C 4.4565087835 -2.8957956450 0.3733501053
C 3.0921161314 -3.1046018591 0.5423931250
C 2.2960446008 -2.0696757259 1.0123979432
Cl 5.4641219291 -4.2043743095 -0.2113190245
O -1.1371138503 -1.2644115004 -2.2992521614
C -0.0419985932 -1.8384351730 -1.5635320295
H -5.7500568683 -1.1018486433 -0.9289935792
H -5.0321900606 -1.3009766743 0.6899666717
H -5.7579954892 0.2749027249 0.2231601538
H -1.3152920262 0.8637448060 -3.6222459576
H -0.7118727771 3.2655321614 -3.7858307112
H -0.6548186938 4.6629111800 -1.7273372865
H -1.1735379974 3.6391439052 0.4652762752
H -1.6870395690 0.0170926846 1.0292610151
H -2.8618977027 1.3183200855 1.3334876144
H 3.3989584873 1.3296669577 3.0036724616
H 1.1592056039 2.8552993801 3.4610377832
H 4.6712055267 0.3510809543 1.2894086879
H 6.0955076816 -1.5112330696 0.5066354404
H 2.6581362741 -4.0732194478 0.3228484427
H 1.2352913061 -2.2160497887 1.1720180559
H -0.4207295020 -2.5411118895 -0.8121577196
H 0.5526872290 -2.3717027403 -2.3087966359
H 0.5571643188 -1.0557157028 -1.0852733936
