38
CONF19
O -0.7011486074 -1.1686684735 2.5042054637
P -0.0071211281 -0.2779644907 1.5550292131
O 0.2123224157 -0.8614197185 0.0701986513
C 0.0892719416 -2.2250323566 -0.2325399350
C 0.9319868149 -3.1606657036 0.3511823691
C 0.8033806526 -4.4963214801 -0.0227652676
C -0.1468882272 -4.8759217628 -0.9682118913
C -0.9778450471 -3.9161359626 -1.5427901501
C -0.8661252593 -2.5779206029 -1.1744889893
O 1.4307316286 0.1648546889 2.0993432521
C 2.3079583273 0.9525357943 1.3267366839
C 3.1842793680 0.3227702209 0.4552473163
C 4.0861832869 1.1056810288 -0.2616179783
C 4.1022879834 2.4891346115 -0.0979116609
C 3.2150497857 3.0960420771 0.7887306580
C 2.3060206304 2.3273457917 1.5115028138
O -0.6690279030 1.1479369471 1.2246651719
C -1.8314701216 1.2067632227 0.4318512580
C -1.7165714889 1.7578014500 -0.8358957773
C -2.8607567387 1.8618276844 -1.6222318185
C -4.0892117934 1.4140459391 -1.1394793959
C -4.1772812709 0.8650895124 0.1376022664
C -3.0427804609 0.7596377320 0.9400600805
H 1.6712798344 -2.8511858168 1.0829672031
H 1.4533475812 -5.2397263109 0.4272837757
H -0.2396902482 -5.9177435358 -1.2564673237
H -1.7206013483 -4.2066422407 -2.2787466846
H -1.5051840919 -1.8129180579 -1.6033500550
H 3.1590433619 -0.7558539038 0.3450286136
H 4.7786211146 0.6284539842 -0.9475331351
H 4.8081900347 3.0935916876 -0.6578680719
H 3.2278281984 4.1728757121 0.9227880241
H 1.6082973720 2.7786313619 2.2082404005
H -0.7476223322 2.0917164468 -1.1915685554
H -2.7882049383 2.2911339197 -2.6162866292
H -4.9771993201 1.4951404609 -1.7576127646
H -5.1326982565 0.5194067856 0.5188673274
H -3.0932642759 0.3416558635 1.9394522954
