30
CONF11
N 5.5190434591 -0.4855627298 0.6344034252
C 4.1805267752 -0.2561559142 0.5599963931
N 3.7737208780 0.9451150236 1.0475754503
C 2.4760388985 1.2225034182 0.9485492329
N 2.0152734640 2.3915816925 1.4205090234
C 1.5684101163 0.2851503651 0.3508977977
N 0.2622689867 0.5779142562 0.2197519658
C -0.5308034710 -0.3099486589 -0.3482543427
C 0.0112852786 -1.5900968044 -0.7549046042
N -0.7970762274 -2.5523889481 -1.2679695429
N 1.3056042189 -1.8769189702 -0.6430350477
C 2.1163582318 -0.9384531642 -0.1048281235
N 3.4342191878 -1.2147751952 -0.0037487880
C -1.9594892887 0.0416049004 -0.4974482006
C -2.6346106544 0.6398679982 0.5754972832
C -3.9677619939 1.0129921277 0.4521523941
C -4.6473091357 0.8009240325 -0.7465235186
C -3.9821912573 0.2175915669 -1.8222626447
C -2.6489903590 -0.1629681963 -1.7007898310
H 5.8473407407 -1.4234862000 0.4723747836
H 6.0707392492 0.1115064353 1.2280581645
H 1.0416597998 2.6231283952 1.3127308281
H 2.6552334556 3.0696026466 1.7996090068
H -0.4101823794 -3.4806704770 -1.3474456446
H -1.7938536365 -2.4820036487 -1.1409290714
H -2.1040318500 0.8016162714 1.5082850614
H -4.4798556544 1.4669261780 1.2949472436
H -5.6885927700 1.0918861608 -0.8421460885
H -4.4992807340 0.0648903119 -2.7644178026
H -2.1336929265 -0.5913727675 -2.5549762978
