49
CONF17
C -4.5583301993 3.4460256738 0.2663917700
C -3.9527718183 2.0813663184 0.4435774339
C -3.8040594553 1.2562254245 -0.6063004730
C -3.2355789790 -0.1005778128 -0.5838590144
C -2.3218271195 -0.5457000830 -1.7394134969
C -3.6835630093 -1.2055163541 -1.4996621548
C -4.7307782246 -0.9355259613 -2.5582576932
C -3.7517023858 -2.6073189795 -0.9374848430
C -1.0609250752 -1.2225471402 -1.4132736717
O -0.7960528369 -1.8294491888 -0.3945487192
O -0.1682887648 -1.0770900226 -2.4395626104
C 1.1391003705 -1.6624949569 -2.2456017381
N 1.9467611129 -0.8851976679 -1.3516320698
C 2.4178388491 0.4060372985 -1.6371917310
O 2.2267513391 1.0016127040 -2.6790121916
C 3.1722508944 0.8544063395 -0.4354450633
C 3.1572395994 -0.1336807459 0.4741621671
C 2.3922885200 -1.2869456079 -0.0785257923
O 2.2113960514 -2.3762014220 0.4231003269
C 3.8337903993 -0.0876946368 1.7947070112
C 4.8145870256 1.0947556054 1.8273315816
C 4.1922208628 2.3625544548 1.2277947953
C 3.8337174044 2.1710940150 -0.2541590492
C -3.5571473596 1.7606080103 1.8561301914
H -5.4521318809 3.5560473376 0.8937516239
H -3.8548492572 4.2247257404 0.5880201737
H -4.8372130266 3.6372824423 -0.7730366718
H -4.1298045139 1.6207372821 -1.5787507585
H -2.8784026500 -0.4618776013 0.3758454835
H -2.2763282750 0.1105300143 -2.6021854834
H -4.6155666070 0.0432798143 -3.0278327220
H -5.7315971831 -0.9891359844 -2.1146778903
H -3.5732829319 -3.3465891976 -1.7268531275
H -3.0239909807 -2.7673176155 -0.1409674754
H -4.7547775586 -2.7822951324 -0.5328003795
H 1.0554620565 -2.6732173768 -1.8391719373
H 1.5757673390 -1.6675942437 -3.2456601065
H 4.3455058068 -1.0381255501 1.9866517773
H 3.0752815279 0.0121328549 2.5842906316
H 5.1328216597 1.2805953419 2.8574842360
H 5.7116767043 0.8289939626 1.2535421176
H 4.8789704448 3.2075912760 1.3341565413
H 3.2804028372 2.6134850295 1.7847547405
H 3.1784035870 2.9729948149 -0.6141821565
H 4.7353726862 2.2119987822 -0.8818430761
H -3.1003754112 0.7768939879 1.9709630380
H -4.4343574583 1.8101371397 2.5136256209
H -4.6674097158 -1.6969541337 -3.3429201930
H -2.8495399287 2.5126648520 2.2271531265
