37
CONF398
C 0.2669098592 -2.3618397546 -3.4756793900
C -0.2722957618 -2.3745343361 -2.0664213658
O -0.9543501949 -1.0962586459 -1.8449585544
P -1.2892979092 -0.5865825874 -0.3830135631
O -2.0055904609 0.7039137118 -0.3465662155
O -1.9760110370 -1.8572732302 0.2854315848
C -2.4016390748 -1.7822004377 1.6930445183
C -3.8222230102 -1.2772133409 1.7922084242
O 0.1740605943 -0.5355653492 0.3403812869
P 0.7406265937 0.6471785825 1.3181516316
O 0.0149060183 0.7222393971 2.6020718209
O 2.2596289571 0.2155161346 1.4602444710
C 3.2853827686 0.4976687273 0.4551784357
C 3.0744025923 -0.2646147914 -0.8353471576
O 0.7835079129 1.9519787512 0.4122086616
C -0.1635369735 3.0601039090 0.6015871715
C 0.6157102194 4.2984393534 0.9723890095
H 0.9966947974 -1.5579786246 -3.6051454277
H -0.5417232243 -2.2251701973 -4.1984892671
H 0.7599183701 -3.3167371049 -3.6817766524
H -1.0032888388 -3.1744590200 -1.9149939352
H 0.5324109001 -2.4805763794 -1.3307048423
H -1.7026961697 -1.1457184208 2.2474580845
H -2.3073489867 -2.8079385144 2.0566950085
H -4.5020591443 -1.9160532049 1.2216823216
H -4.1323944405 -1.2892680445 2.8421106915
H -3.8971933994 -0.2528666877 1.4192967055
H 4.2123301534 0.1928686142 0.9456513022
H 3.3112081836 1.5783234598 0.2862143140
H 3.9402427889 -0.0969361837 -1.4841151826
H 2.9875328168 -1.3378705146 -0.6438595310
H 2.1808793450 0.0759903285 -1.3650460859
H -0.6901639830 3.1634761727 -0.3489896368
H -0.8839626869 2.7827406973 1.3745528181
H -0.0741567049 5.1431936336 1.0670667740
H 1.1294245334 4.1624275707 1.9283892074
H 1.3541554006 4.5415960354 0.2030929561
