21
CONF10
C -1.8952476860 -0.0457600578 -0.6822863320
C -1.1868619409 0.7295715558 0.4300130736
C 0.1516018951 1.3511151235 0.0296160362
C 1.0958832534 0.3090771869 -0.6170883764
C 0.9953172855 -1.0599303392 0.0727851690
C -0.4415234109 -1.3595196633 0.5310949492
O -1.3267381102 -1.3764008163 -0.5868359721
O -0.9077307352 -0.3263298378 1.3827945807
O 1.8675463724 -1.0058906493 1.2076958594
O 0.8051026365 0.1119680661 -2.0032513248
O 0.7667398854 1.9368896988 1.1802765513
H -2.9718824051 -0.1099361723 -0.4938533341
H -1.7063633955 0.3652070736 -1.6766383642
H -1.8247061419 1.4675927008 0.9212432457
H -0.0162940591 2.1680197225 -0.6825249188
H 2.1261172521 0.6705356632 -0.4885616119
H 1.3126607415 -1.8373629847 -0.6364228331
H -0.5044193005 -2.3130887475 1.0687769682
H 1.8036595937 -1.8467177153 1.6801410796
H 0.9588019754 0.9517575580 -2.4549603851
H 0.8983361830 1.2192026133 1.8179854420
