22
CONF22
C -3.2657642639 0.6972810020 -1.8211859160
N -2.9219964821 -0.6082874713 -1.2250927182
S -2.6634638773 -0.7500514116 0.3904341181
O -3.6954758015 0.0127696415 1.0973326289
O -2.3920328415 -2.1554107375 0.6959829841
C -1.0598329205 0.2210559881 0.8580660838
C 0.2009552851 -0.1377218768 0.0180562992
C 1.5399918184 0.4060720269 0.6242376036
C 2.7410616984 0.4196602266 -0.3774217039
F 2.8696961515 -0.7753167324 -0.9702203286
F 3.8638056208 0.6900624435 0.3016919395
F 2.5719732669 1.3591676549 -1.3137945957
F 1.3570377178 1.6734738233 1.0606373246
F 1.8866034416 -0.3738359698 1.6710651270
F 0.0374019386 0.3811820277 -1.2240002992
F 0.3005483060 -1.4815088683 -0.0805151056
F -1.3390971354 1.5309194744 0.7098858494
F -0.8241023490 -0.0394949542 2.1618624938
H -2.3933814949 1.3473381847 -1.9408457564
H -4.0142253680 1.1889821515 -1.1984013953
H -3.7034191215 0.4945845352 -2.8007884693
H -2.3099388233 -1.2069844329 -1.7750195728
