51
CONF16
C -1.2057879936 0.6126667307 2.9289888914
C -0.2138158163 1.0767904604 1.8666291533
N 0.4429979074 -0.0800062353 1.2489059689
C -0.5284417102 -0.9560969795 0.5905333604
C -1.5359043976 -1.4906174475 1.6039271250
C -2.2478353384 -0.3143432636 2.3068160344
C -3.2323564325 -0.8491368237 3.3277136492
O -2.9821244214 -0.8085647600 4.5272231950
C -4.5010675992 -1.4762713154 2.8507844767
C -4.9490236734 -1.3778525073 1.5259489499
C -6.1437475639 -1.9677258369 1.1321097765
C -6.8761369428 -2.6600162771 2.0825302690
C -6.4705610320 -2.7854072263 3.4034166623
C -5.2787054054 -2.1853914385 3.7782525348
F -8.0382049276 -3.2393793849 1.7062937753
C 1.5740190369 0.2739346193 0.4011055029
C 1.2362777605 1.1112265297 -0.8499070794
N 2.4570703744 1.3665562248 -1.6274847847
C 2.8295740843 0.4253325607 -2.5963529929
O 2.1370466612 -0.5671544430 -2.8035464528
C 4.0651979022 0.7174410264 -3.3229122841
C 4.5133313735 -0.1382701612 -4.3363973897
C 5.6834776509 0.1414706354 -5.0197447321
C 6.4215676460 1.2858172332 -4.6905050321
C 5.9973666257 2.1444681961 -3.6900204906
C 4.8120398925 1.8596583490 -3.0024464844
N 4.3571425938 2.6880654475 -1.9971742406
C 3.2088547781 2.4914518148 -1.2730609533
O 2.8648080574 3.2571545820 -0.3795689407
H -0.6697380829 0.0826168102 3.7232157280
H -1.6951512191 1.4815572305 3.3824567946
H 0.5576816730 1.7092778114 2.3221385249
H -0.7512486608 1.6968090132 1.1217845397
H 0.0131095411 -1.7895670174 0.1269804454
H -1.0875324276 -0.4348298407 -0.2117705026
H -1.0177815011 -2.0958793731 2.3583449659
H -2.2572459033 -2.1368423212 1.0933421224
H -4.3766525373 -0.8325391902 0.7845679793
H -6.5054596454 -1.8944555208 0.1125771315
H -7.0786350749 -3.3406340363 4.1091591202
H -4.9308131056 -2.2625353996 4.8023842523
H 2.2976899126 0.8350391271 1.0060812998
H 2.0627525932 -0.6519617302 0.0717011226
H 0.8104299302 2.0770976966 -0.5764977404
H 0.5439317318 0.5786727800 -1.5027946850
H 6.0291281513 -0.5210275256 -5.8055118004
H 7.3404105415 1.5074211515 -5.2239342174
H 6.5705014045 3.0302577994 -3.4345784459
H 4.8960962507 3.5039972354 -1.7403745901
H -2.8016948472 0.2468906836 1.5415238101
H 3.9225011336 -1.0175061525 -4.5685549197
