45
CONF12
C 2.2943960649 -4.3483888855 2.2726944220
O 2.4618754653 -3.0613120446 2.9151863028
C 2.2393019730 -1.9654837328 2.1821217366
C 2.3837072967 -0.7340657882 2.8179512111
C 2.1412093732 0.3811140319 2.0273498069
O 2.2645435795 1.5860356651 2.5885372072
C 2.0137593227 2.7484922451 1.7607572416
N 1.7989256636 0.2874654355 0.7338265694
C 1.6773488460 -0.9483695686 0.2487197419
N 1.2935809390 -1.1034237173 -1.0820295777
C 0.7630503613 -0.1927368608 -1.9821194931
O 0.3207372125 -0.5568972099 -3.0617351237
N 0.7711948350 1.1303818856 -1.5627618331
S -0.2183862586 2.2831412128 -2.3042717523
O -0.2038815318 3.4243819501 -1.3863434306
O 0.1869807861 2.4680288381 -3.6970435616
C -1.8090675760 1.4845214903 -2.2834796885
C -2.3755886290 0.7153703135 -1.2646603897
C -3.5554481596 0.2161400615 -1.8394773820
N -3.7096746340 0.6494422526 -3.0920165545
N -2.6407564811 1.4119183543 -3.3573973319
C -2.5137310037 2.0234806341 -4.6799814458
C -1.9007790944 0.4511702378 0.0779336760
N -1.9932349798 -0.7542553771 0.6552115561
N -1.4962722146 -0.5167235256 1.8590732597
C -1.3849375555 -1.5415392578 2.8901653336
N -1.1147577389 0.7384493564 2.0435564283
N -1.3642968607 1.3721349489 0.9209809698
N 1.8843091998 -2.0939709530 0.8986211476
H 2.5209663426 -5.0782779121 3.0489857074
H 2.9886581971 -4.4513250201 1.4354440905
H 1.2665225361 -4.4686890419 1.9220179269
H 2.6639228324 -0.6517316479 3.8593782696
H 2.7121592392 2.7767997367 0.9200235443
H 2.1785789844 3.6003695970 2.4192072851
H 0.9828648743 2.7428036280 1.3974828828
H 1.2460315170 -2.0621667766 -1.4032160553
H 1.0740094323 1.3040057107 -0.5867094723
H -4.2988325685 -0.4198747075 -1.3785699190
H -2.2739813508 3.0827011826 -4.5801205975
H -1.7308322132 1.5221253859 -5.2529459854
H -3.4767334795 1.9025720838 -5.1745920019
H -2.3856534232 -1.8642586925 3.1860599264
H -0.8228809083 -2.3873291606 2.4884319685
H -0.8589085304 -1.1022259664 3.7371179703
