47
CONF28
C -4.6501635940 -3.8942595631 -0.4138633315
C -3.4433401418 -2.9964843991 -0.3953943894
C -2.8745347357 -2.5880730788 0.8154125352
C -1.7503390720 -1.7752917296 0.8458129853
C -1.1765103851 -1.3639276950 -0.3515787814
C -1.7075988956 -1.7559599856 -1.5730459827
C -2.8418383101 -2.5654953793 -1.5772862984
O -0.0499566018 -0.5481950087 -0.2304324592
P 0.4081314676 0.5275619541 -1.3467337181
O 0.6803658065 0.0215826745 -2.7006935142
O 1.6144538435 1.2316084867 -0.5540440433
C 2.7794206041 0.5140842055 -0.2373700176
C 3.6074067127 0.0258872886 -1.2355637812
C 4.7776277959 -0.6320255465 -0.8655318955
C 5.1293594943 -0.7979812885 0.4744707922
C 4.2685469075 -0.2881354428 1.4517544489
C 3.0928530777 0.3650817267 1.1058954346
C 6.4013383172 -1.4979785554 0.8686060734
O -0.7093355670 1.6776151976 -1.3406209872
C -1.2481705405 2.1887595842 -0.1485698108
C -0.5817625372 3.1911463552 0.5380256959
C -1.1639226886 3.7165548109 1.6877323454
C -2.3969932702 3.2569447097 2.1538924517
C -3.0418509676 2.2487224595 1.4317344139
C -2.4783305713 1.7118259647 0.2806729041
C -3.0340555299 3.8476093469 3.3819638565
H -5.3916075953 -3.5782823026 0.3261788312
H -5.1281437546 -3.8954523284 -1.3964581135
H -4.3732163720 -4.9281478724 -0.1773718832
H -1.3164027702 -1.4418169386 1.7819574376
H -1.2440959685 -1.4410980188 -2.5010435344
H 3.3321879625 0.1511488408 -2.2764536216
H 5.4302785653 -1.0206677788 -1.6418077070
H 4.5205361405 -0.4079320939 2.5019498065
H 2.4163756896 0.7570944803 1.8574140456
H 7.0861204261 -0.8118920063 1.3790526680
H 6.9193342345 -1.9012376462 -0.0045684929
H 6.1993509066 -2.3265591905 1.5553144757
H 0.3756167896 3.5478589279 0.1768287517
H -0.6459223352 4.5021455259 2.2304223405
H -4.0034065183 1.8756957490 1.7734823304
H -2.9765074099 0.9282637786 -0.2798608977
H -3.4795135810 3.0706112681 4.0102383484
H -2.3048712078 4.3967374966 3.9825742993
H -3.8339079230 4.5458836514 3.1097570842
H -3.2607642745 -2.8701969415 -2.5321285701
H -3.3230187928 -2.9067795308 1.7524840295
