51
CONF114
C -1.1694314750 -2.0076120563 2.1801186738
N -1.7653474781 -2.2658082603 0.8702413020
C -2.6397026336 -3.4424183670 0.9837249313
C -3.3416873114 -3.7650843206 -0.3267307437
C -2.3085427581 -4.0037788802 -1.4222182710
C -1.3847031050 -2.7936674960 -1.5137416781
C -0.7332594668 -2.4652395124 -0.1643588087
C 0.2035220425 -1.2513682813 -0.2852630122
C -0.5358758717 0.0736982852 -0.4920623016
N 0.3852899425 1.1501767763 -0.8656266434
C -0.0162111663 2.0909237612 -1.8349530410
C -1.3625995674 2.3432091832 -2.1213189227
C -1.7173082720 3.2452236179 -3.1203365733
C -0.7415633390 3.9431963423 -3.8217121889
C 0.6002265777 3.7387381514 -3.5130311272
C 0.9612844192 2.8100213847 -2.5434376981
S 2.6756168430 2.4531426085 -2.2318040885
C 2.5516636987 2.1772742411 -0.4814853373
C 1.4142525645 1.5200446394 0.0183880138
C 1.3368647618 1.2652169560 1.3863980248
C 2.3934990873 1.5957734181 2.2424936325
C 3.5222988995 2.2379135465 1.7348347759
C 3.5755691200 2.5488982500 0.3779099752
S 2.1717823680 1.1496457561 3.9480357196
C 3.6643186916 1.8214097382 4.7466096060
H -0.6209390494 -1.0627385694 2.1899889206
H -0.4720220184 -2.8074951545 2.4977950606
H -1.9636224107 -1.9331553534 2.9294924050
H -3.3787007572 -3.2360491281 1.7672114662
H -2.0596003756 -4.3320725719 1.3122314634
H -3.9801467533 -4.6449196391 -0.1876898983
H -3.9911894863 -2.9252091212 -0.6042391765
H -2.7931108907 -4.1899005430 -2.3871234658
H -1.7195875777 -4.8992618950 -1.1794558567
H -0.5900061756 -2.9673522378 -2.2484860164
H -1.9665958859 -1.9311781463 -1.8615693995
H -0.0949168315 -3.3347631202 0.1114716179
H 0.8535907760 -1.4157514499 -1.1523828689
H 0.8671889797 -1.1928155339 0.5816598047
H -1.2247114883 -0.0445857360 -1.3292746997
H -1.1541321317 0.3268502722 0.3820269806
H -2.1403204276 1.8418644796 -1.5570478783
H -2.7679210819 3.4127244193 -3.3336566314
H -1.0175216070 4.6526769691 -4.5940286201
H 1.3770458356 4.2870711879 -4.0363280717
H 0.4446383515 0.8091561690 1.7991208547
H 4.3540873283 2.5105482410 2.3710955673
H 4.4418759503 3.0670254607 -0.0211885400
H 3.5577364786 1.5976322052 5.8104800251
H 4.5702156377 1.3370971199 4.3725784422
H 3.7287078430 2.9050721994 4.6166446872
