53
CONF122
C 0.7221662247 0.2480489154 -1.5513935821
C 1.9091339666 0.5268842444 -0.6433615419
N 2.5637213913 1.7878576796 -1.0128301204
C 1.5839652275 2.8761432387 -0.9314165394
C 0.3991149121 2.5948615179 -1.8408695198
N -0.2530099406 1.3376245125 -1.4636379219
C -1.4325222425 1.0963103611 -2.2972433032
C -2.3286659063 -0.0312179934 -1.7779308005
C -2.6914854218 0.1522613548 -0.2949259389
N -1.8379012850 -0.6614244828 0.5836315926
C -1.3081680358 -0.0937097713 1.7601768137
C -1.8460939747 1.0648636095 2.3369288377
C -1.2540180161 1.6449950124 3.4561742113
C -0.1423545625 1.0616823256 4.0543596552
C 0.3676787591 -0.1232450184 3.5300697012
C -0.1992765591 -0.6851278977 2.3902276257
S 0.5415333253 -2.1326231492 1.6691859627
C -0.9281389095 -2.8818061907 1.0136715804
C -1.9409601301 -2.0561532136 0.4902233852
C -3.0362507133 -2.6698188301 -0.1353725660
C -3.0820283162 -4.0545777788 -0.2310574120
C -2.0981884094 -4.8760923850 0.2969185932
C -1.0234182057 -4.2664308282 0.9401820312
Cl -4.4589782845 -4.7876470886 -1.0530082367
C 3.7346742816 2.0607329021 -0.1709941813
C 4.9144279801 1.1965836567 -0.5951794812
O 5.1796105104 1.3563470277 -1.9947016461
H 0.2531065586 -0.6869504822 -1.2283414839
H 1.0776519955 0.1125797528 -2.5930785252
H 2.6232565139 -0.2986380109 -0.7308665731
H 1.5618676640 0.5600938192 0.4084510977
H 2.0650289370 3.8110412011 -1.2411579672
H 1.2213456918 3.0078667232 0.1079676923
H 0.7477398300 2.5683872576 -2.8932943451
H -0.3260135123 3.4121700235 -1.7499708560
H -1.1513023329 0.8840793746 -3.3476608354
H -2.0176052255 2.0253871974 -2.3056849603
H -1.8600725676 -1.0073368554 -1.9371623585
H -3.2432276672 -0.0324743490 -2.3810977622
H -3.7535944207 -0.0540704031 -0.1062505139
H -2.5192523780 1.1960408282 -0.0350673629
H -2.7339320112 1.5226565013 1.9184491454
H -1.6828867204 2.5533568862 3.8671336144
H 0.3179354304 1.5107323308 4.9278862357
H 1.2233971048 -0.6068930591 3.9914663776
H -3.8409120172 -2.0817015561 -0.5553579376
H -2.1578065202 -5.9542131296 0.2119376823
H -0.2333253723 -4.8797915123 1.3618127586
H 4.0073351299 3.1145394175 -0.3064932670
H 3.5217254625 1.9029312888 0.9036913752
H 5.8110892373 1.5095331744 -0.0505310908
H 4.7329965111 0.1373340756 -0.3594251977
H 4.3008881137 1.4132051757 -2.4051824425
