45
CONF710
O 2.5282461415 1.3942825548 0.5718610100
C 2.4945696062 1.2274781696 -0.8452464152
C 2.0789756538 -0.1720677231 -1.2509175958
O 3.0719586414 -1.1179503766 -0.7549445076
C 2.4449453458 -2.1762873610 -0.0269593741
O 2.4198617740 -1.9086365661 1.3614229629
C 3.2138390087 -3.4592208045 -0.3174414656
O 3.2733977648 -3.7466214692 -1.7077883808
C 0.9888107227 -2.1477932813 -0.5047736754
O 0.0755892082 -2.8266333500 0.3440360097
C 0.7502350848 -0.6499032526 -0.6664047484
O -0.3296435766 -0.3696142619 -1.5615506589
C -1.4259388927 0.3152689202 -1.0219554409
O -0.9956062181 1.6159884332 -0.6260621646
C -2.0945337501 2.4604976674 -0.2375054098
C -1.4975388854 3.8274448147 0.0400374835
O -0.9270238090 4.3994109020 -1.1402175729
C -2.8521314294 1.8784721972 0.9518863708
O -2.0108244314 1.9083321779 2.1054431314
C -3.2820473265 0.4500986110 0.6204123333
O -3.8880277096 -0.0992598482 1.7923645396
C -2.0819027957 -0.3786226716 0.1794627307
O -2.5478341655 -1.6819759912 -0.1577060746
H 3.0942037844 0.6929077546 0.9255096797
H 1.7607336950 1.9409020433 -1.2351858224
H 3.4730346678 1.4548981823 -1.2929867617
H 2.0429641856 -0.2419545915 -2.3468620228
H 3.2954627616 -2.0794029864 1.7371664965
H 2.6993383718 -4.2947252189 0.1665882124
H 4.2217004978 -3.3675294684 0.1190405891
H 3.7012057741 -2.9908339025 -2.1337763330
H 0.9304063716 -2.6285344554 -1.4870845330
H 0.2742948258 -2.5605426585 1.2552664982
H 0.5877805009 -0.1841305525 0.3107550275
H -2.1493381422 0.3880110989 -1.8498336127
H -2.8008014772 2.5416052126 -1.0807532640
H -2.2905572656 4.5053314866 0.3702447148
H -0.7484562901 3.7461296545 0.8383536688
H -0.2355068705 3.7947203627 -1.4406172856
H -3.7535164182 2.4901895231 1.1184820631
H -2.4229636188 1.3262043996 2.7599017313
H -4.0116108689 0.4855791059 -0.2056570847
H -3.9253670845 -1.0582729234 1.6677275714
H -1.3687198359 -0.4263945948 1.0132502381
H -1.7816632353 -2.2768448511 -0.0678489645
