57
CONF82
C -2.4180765123 -1.1234589898 1.8026381449
Si -3.0475636405 -2.0122177968 0.2781822808
C -4.6093745196 -1.1688904615 -0.3310731986
C -3.3701494389 -3.8181104380 0.6422596714
O -1.8911033226 -1.9644595629 -0.9091152300
Si -1.2488124391 -0.8576812395 -1.9357160501
C 0.3696638350 -1.5180017844 -2.5789337086
C -2.4473615764 -0.4995087510 -3.3229517609
O -1.0047619043 0.5252219172 -1.0680840801
Si -0.1613393478 1.9350429399 -1.1351043305
C -0.6275203863 2.9297490538 0.3701877788
C -0.5465256861 2.8233906581 -2.7296474281
O 1.4491555815 1.6006183644 -1.1430178122
Si 2.7627128171 1.5993444429 -0.1510742790
C 3.9966155778 0.4031990029 -0.8767959330
C 3.4443616642 3.3298882049 -0.0345846870
O 2.3236571168 1.1469968875 1.3648643863
Si 2.0575199374 -0.1711194204 2.3317247854
C 3.6784607825 -0.6452877879 3.1446225160
C 1.4070362320 -1.6012015250 1.3098789413
C 0.8038396230 0.3402460894 3.6226864213
H -3.1883528761 -1.0775250875 2.5806285766
H -1.5412788963 -1.6230253341 2.2270210762
H -2.1298577520 -0.0975993331 1.5474082256
H -4.4360885825 -0.1014631684 -0.5084825430
H -4.9668896878 -1.6144511042 -1.2656765722
H -5.4126618381 -1.2541484049 0.4093380757
H -3.7454921215 -4.3372779858 -0.2459060281
H -4.1099096638 -3.9377236406 1.4411558726
H -2.4490591373 -4.3193917614 0.9581682326
H 1.0397859653 -1.7705948174 -1.7517129927
H 0.8759300676 -0.7763286721 -3.2062227912
H 0.2135506428 -2.4221989843 -3.1766298668
H -2.0074090532 0.1788820498 -4.0619935108
H -2.7326481897 -1.4210940002 -3.8413681360
H -3.3602246770 -0.0309705951 -2.9412331052
H -0.1350442335 3.9078761329 0.3699890843
H -0.3319183784 2.4062271139 1.2853359422
H -1.7090309232 3.0974997328 0.4067831571
H -0.0477546507 3.7976469616 -2.7654225980
H -0.1967486550 2.2427312957 -3.5903422480
H -1.6228091613 2.9873075640 -2.8465894038
H 3.5595161636 -0.5945755833 -0.9870953893
H 4.8881056019 0.3188418949 -0.2464226053
H 4.3163391201 0.7339300501 -1.8705722732
H 4.3545160395 3.3562046466 0.5736010042
H 2.7140370066 3.9991124340 0.4326410539
H 3.6849820587 3.7288415376 -1.0253345894
H 3.5491693556 -1.4955387789 3.8234099659
H 4.0857203957 0.1893104078 3.7252690307
H 4.4256030468 -0.9294595420 2.3953634364
H 0.5230304309 -1.3058829288 0.7341999341
H 2.1632960720 -1.9696796971 0.6083782970
H 1.1207800532 -2.4423302065 1.9518012766
H 0.6170833122 -0.4695349667 4.3367176651
H 1.1573279091 1.2107977941 4.1855690621
H -0.1546555302 0.6015830731 3.1622330494
