19
CONF12
C -3.0837622823 0.2704546250 -0.2501079439
C -1.6970130290 0.4345997796 0.2922458910
C -1.4182886954 1.0005564987 1.4701408190
C -0.6211257193 -0.0743860295 -0.6043596514
O -0.8316402259 -0.5262453019 -1.7093211131
O 0.6200020707 0.0180002230 -0.0664390933
C 1.6969708788 -0.4729019369 -0.9051647622
C 2.9606155472 -0.3410974085 -0.0879216810
O 2.9513306154 -1.1787549870 1.0627194468
H -3.8235033068 0.6548017983 0.4546043779
H -3.1871158344 0.7965258001 -1.2041060110
H -3.2950153602 -0.7834301442 -0.4557984345
H -0.3993499925 1.1104515301 1.8205346217
H -2.2140747112 1.3740481522 2.1071133106
H 1.7435779155 0.1239627971 -1.8234609102
H 1.4979840150 -1.5165378955 -1.1687732406
H 3.8105483438 -0.6612369851 -0.6994569066
H 3.1171149631 0.7138912182 0.1869901169
H 2.1727457072 -0.9427020248 1.5805610634
