53
CONF27
C -1.1304562144 5.0397364863 -0.7647011922
C 0.2027484623 4.3980091049 -0.4590690560
O -0.0582064180 3.0095241023 -0.1223147842
C 1.0261825095 2.2504707393 0.1753408547
O 2.1647956119 2.7113482287 0.1621202117
C 0.6508428915 0.8856044300 0.5146095248
C 1.6091421440 -0.0047097675 0.9051931995
N 1.2535991856 -1.2365983563 1.3736117383
C -0.0435388870 -1.6304414075 1.5932247203
C -1.0703476878 -0.8131326167 1.2156565861
C -0.8173256210 0.4861886644 0.4613793294
C -1.3723353980 0.4478941367 -0.9675500114
C -2.3957604269 1.3425511102 -1.3098556519
C -2.9605537601 1.3785961755 -2.5767006368
C -2.5081693032 0.5009728383 -3.5598683418
C -1.4964928348 -0.4018095457 -3.2600202787
C -0.9477298613 -0.4163515883 -1.9788402701
Cl 0.3319186338 -1.6008950123 -1.6923228128
C -2.4482879271 -1.1743694346 1.5300280645
O -2.8521095037 -2.2450244637 1.9693665907
O -3.2993332674 -0.1439416369 1.2725135049
C -4.6947300110 -0.4084754154 1.5219988181
C -0.1707410614 -2.9575220741 2.2774647031
C 3.1083169893 0.2598244599 0.9230210938
O 3.8481037419 -0.9089817634 1.2369643912
C 4.1323338753 -1.7323593524 0.0905283944
C 4.3878365412 -3.1416820183 0.5797279489
N 3.1527170911 -3.7107731368 1.1477270357
H -1.7972382483 4.9881962814 0.1010233893
H -1.6157371205 4.5472990004 -1.6123935568
H -0.9747596151 6.0923544287 -1.0184141300
H 0.7026105235 4.8787115764 0.3884619721
H 0.8774486491 4.4304464830 -1.3208062724
H 2.0035046328 -1.8995599455 1.5876665449
H -1.3919048082 1.2756014833 0.9544639643
H -2.7453177441 2.0283677876 -0.5446262387
H -3.7506084435 2.0892753453 -2.7973100228
H -2.9370383447 0.5143367620 -4.5566389338
H -1.1304769248 -1.0937019525 -4.0104987552
H -4.8619001478 -0.6266671010 2.5802087371
H -5.2174543039 0.5041135525 1.2353291118
H -5.0390635088 -1.2513329777 0.9168014198
H -0.7770041004 -2.8690178830 3.1811434949
H -0.6778529183 -3.6770935842 1.6292970520
H 0.8157752236 -3.3455730549 2.5383352365
H 3.4234599963 0.6870322532 -0.0346960003
H 3.3286475989 1.0024432764 1.6970436123
H 3.2784238292 -1.7229249310 -0.6046200734
H 5.0105096283 -1.3351724621 -0.4381937493
H 4.8008504871 -3.7272472911 -0.2564387684
H 5.1524754370 -3.1091264471 1.3643625054
H 3.3708232461 -4.5376172300 1.6929892766
H 2.5494073921 -4.0267946852 0.3934646041
