49
CONF73
C -3.1723417045 -1.2314096563 -1.6053252306
C -3.2874185067 -1.1781898009 -0.0963000518
C -2.4506916481 -0.1618321475 0.7082017034
C -2.1725169654 -1.6831453014 0.7704823553
C -2.4768436491 -2.3397077697 2.1031630042
C -0.9117730334 -2.2438313243 0.1472463704
C -1.5141124453 0.7725155848 0.0881265181
O -0.8430454391 0.6317266127 -0.9140434296
O -1.4632276367 1.9329930621 0.8390151222
C -0.4855096416 2.9074150403 0.3866561902
C -1.0096932478 4.2111145201 0.7883975296
N -1.3979612682 5.2518891139 1.1030182869
C 0.8715857375 2.6204829871 0.9906706082
C 1.8351286368 2.0039657517 0.1972004905
C 3.0540046279 1.6487709625 0.7691660922
C 3.3285728072 1.9305663991 2.1040299971
C 2.3619957524 2.5650184467 2.8786994262
C 1.1285212583 2.9040891588 2.3330776244
O 4.0624528895 1.0670404164 0.0295043891
C 3.7274580613 0.1461686659 -0.9534896158
C 4.4595724545 0.1936958640 -2.1347481586
C 4.2164493114 -0.7577944854 -3.1219105989
C 3.2473396977 -1.7402473356 -2.9316161416
C 2.5239145345 -1.7733594334 -1.7404219386
C 2.7603759813 -0.8343138505 -0.7410640386
C -4.7277858084 -1.3264670590 0.3568451322
H -3.5258779426 -2.2079179024 -1.9558263485
H -2.1594528750 -1.0764169124 -1.9698583175
H -3.8132397337 -0.4638951962 -2.0527521062
H -2.9434189859 0.2416633036 1.5864984682
H -2.7205715742 -3.3974704036 1.9489823318
H -1.5941906973 -2.2898428467 2.7495428192
H -3.3068500103 -1.8705645514 2.6325515514
H -0.6278189502 -1.7486174423 -0.7788335208
H -1.0574255598 -3.3108632029 -0.0572844912
H -0.0761840727 -2.1493874711 0.8498592596
H -0.4255606098 2.8826852287 -0.7076055704
H 1.6321037598 1.7878492106 -0.8454851717
H 4.2903958678 1.6508839814 2.5205268488
H 2.5723775349 2.7867059842 3.9197810750
H 0.3718707567 3.3847489310 2.9455163653
H 5.2081667762 0.9677212712 -2.2675908972
H 4.7853154002 -0.7242661363 -4.0457861062
H 3.0576169689 -2.4772663696 -3.7048360208
H 1.7735250209 -2.5412474701 -1.5797524247
H 2.2029865589 -0.8623019976 0.1895144990
H -5.0959518619 -2.3266811599 0.1003935465
H -4.8568760325 -1.1785436737 1.4295046156
H -5.3553895051 -0.5941285967 -0.1619725468
