41
CONF15
C 1.8259015155 2.9287626743 -0.7212392104
C 2.2374512513 1.9736248149 0.3488709376
N 1.2565104495 1.3288491568 0.9875929934
C 1.6623868582 0.4433405658 1.9078418699
N 2.9298390324 0.2037259212 2.2566093791
C 3.8111851697 0.9366136541 1.5777503743
N 3.5402731182 1.8197559935 0.6052313355
O 5.0787645491 0.7284254850 1.9298191512
C 6.0920303372 1.4831237305 1.2333636149
N 0.7207000711 -0.3151569433 2.5661827874
C -0.6697498277 -0.4460771915 2.3750227563
O -1.2723893718 -1.3350048804 2.9427574648
N -1.2340641712 0.4992902715 1.5463716071
S -2.8333238434 0.3310258449 0.9703265026
O -2.9469388292 1.3744048322 -0.0519245363
O -3.7401302274 0.2722041332 2.1093527464
C -2.8592016492 -1.2735115249 0.1501613772
C -3.4693323012 -2.3267341144 0.8185332347
C -3.6017940503 -3.5539296767 0.1772868931
C -3.1481487655 -3.7092493665 -1.1275532283
C -2.5479441111 -2.6456726521 -1.7935108378
C -2.3786281886 -1.4168976394 -1.1560548436
C -1.6114242271 -0.3436938326 -1.8616677259
O -0.5948689146 0.1607700139 -1.4384081197
O -2.1538203883 -0.0718031482 -3.0596051346
C -1.4664810776 0.9518132372 -3.8147197768
H 2.6938965587 3.2849423858 -1.2752731458
H 1.3087269421 3.7817879847 -0.2686918241
H 1.1117460127 2.4364075674 -1.3878696750
H 5.9451149186 2.5555072889 1.3830300545
H 6.0710721499 1.2606785312 0.1638045167
H 7.0328725468 1.1577234631 1.6766985975
H 1.0953151774 -0.9984488591 3.2099257721
H -0.5873492652 1.0418394116 0.9532952414
H -3.8343700170 -2.1712286430 1.8264769402
H -4.0694408139 -4.3827593855 0.6974236445
H -3.2634113709 -4.6616008799 -1.6343372234
H -2.1953938019 -2.7639112498 -2.8124016453
H -0.4363486889 0.6475240833 -4.0173858754
H -1.4684519196 1.8890062402 -3.2524476096
H -2.0307813289 1.0551729929 -4.7406392689
