26
CONF3
C -4.0800458619 0.4321650475 0.0177217364
C -3.9518224450 -0.9576669020 0.0135783811
C -2.6902657238 -1.5380668367 0.0023906898
C -1.5464769372 -0.7357354743 -0.0049135248
C -1.6750913093 0.6648459307 -0.0011334136
C -2.9478568218 1.2377424790 0.0102000675
C -0.4779764472 1.5519807456 -0.0098744275
O -0.6113737287 2.7793632958 -0.0068736457
C 0.8367373869 0.9127629215 -0.0179386069
C 0.9819562687 -0.4914639274 -0.0193066810
C -0.2104735702 -1.3806197561 -0.0147080052
O -0.0951113310 -2.6030681248 -0.0170621373
C 2.2401970021 -1.0728485661 -0.0245731756
C 3.4007499793 -0.2753433347 -0.0276436239
C 3.2522453105 1.1311181320 -0.0252510807
C 1.9982154701 1.7008348213 -0.0206063166
N 4.6351560824 -0.8434972045 -0.0667517825
H -5.0659552625 0.8857528491 0.0267422311
H -4.8369583738 -1.5854189671 0.0192620061
H -2.5736710653 -2.6162521682 -0.0006234914
H -3.0339721059 2.3187072348 0.0130577370
H 2.3238296956 -2.1549651203 -0.0253018006
H 4.1391599688 1.7580469067 -0.0262458846
H 1.8924471816 2.7805154603 -0.0166734096
H 5.4460762727 -0.2738985641 0.1118856452
H 4.7309437263 -1.8300245775 0.1106376239
