45
CONF15
C 1.5980399421 -3.9362401400 -1.9716629396
C 2.0719910755 -2.4915439019 -1.9285629014
C 0.8644482621 -1.5491885640 -1.9646283537
O 0.3290356199 -1.2640451094 -3.0332853711
N 0.4304516206 -1.1159135848 -0.7550686828
C -0.6532547392 -0.1991978502 -0.6055832212
C -1.7995098947 -0.5248345402 0.4089563496
N -1.4402326078 0.7014538916 1.1363225059
C -0.4241734244 1.0616122684 0.2607141246
O 0.3171484906 2.0162121338 0.2294812735
C -2.5079804197 1.5183316575 1.6682321483
C -3.6887060571 1.4173866797 0.6311187180
S -3.5688383072 -0.3267279952 -0.0608887020
C -5.0670557309 1.6041466875 1.2561043641
C -3.4598455304 2.4408554037 -0.4811549426
C -2.9187734857 1.1177322696 3.0767380163
O -3.3273239164 1.9112723551 3.8959337926
O -2.8034403488 -0.2005736677 3.2936482719
O 2.8511000912 -2.3458378300 -0.7323616257
C 3.5986857767 -1.2017906341 -0.5739510841
C 4.3400533306 -1.1371760175 0.6093151226
C 5.1208019834 -0.0200630269 0.8738286402
C 5.1697035343 1.0410486058 -0.0316532404
C 4.4272701662 0.9674191906 -1.2051203687
C 3.6368985549 -0.1476630157 -1.4882911118
H 1.0025972799 -4.1683354301 -1.0839931055
H 0.9856098906 -4.0932375861 -2.8626216819
H 2.4605609885 -4.6056801495 -2.0125871967
H 2.6837729953 -2.2687771026 -2.8109685766
H 0.9446067780 -1.4023240774 0.0679280745
H -1.0388105323 0.0741119755 -1.5922275484
H -1.6643713932 -1.4505027419 0.9737598844
H -2.1763163153 2.5596163951 1.7222564094
H -5.1331493120 2.6027076459 1.7001500230
H -5.2739324773 0.8577338225 2.0274682175
H -5.8373641731 1.5248960268 0.4841815181
H -2.4679326138 2.3427940985 -0.9316825596
H -4.2047413094 2.3067920169 -1.2695703722
H -3.5589965415 3.4533418253 -0.0732880949
H -3.1007953066 -0.3940336872 4.2004573473
H 4.2919835629 -1.9674902980 1.3065904701
H 5.6939426743 0.0218910857 1.7950057349
H 5.7787440702 1.9139343303 0.1781517786
H 4.4521278825 1.7858368477 -1.9180707483
H 3.0659700675 -0.1700760734 -2.4091211450
