44
CONF20
C -5.0336651048 0.7352365824 0.9977849900
C -3.5800729391 0.3499066516 1.1687664094
C -3.3575510986 -0.9980265235 1.8831728937
O -3.0640408349 -1.9112968572 0.8099411038
C -2.3431746671 -1.1313876409 -0.1233776870
O -3.0011947564 0.1241724351 -0.1481577086
C -2.5186255647 -1.7827909308 -1.5040018728
N -1.7506223926 -1.0814450516 -2.5165767548
C -2.0538702163 0.0652417537 -3.1577974536
N -1.0397300297 0.4426287734 -3.9272114236
C -0.1142069404 -0.5329703910 -3.7027432088
N -0.4967326735 -1.4774132889 -2.8532091499
C -0.8713401678 -0.9544709798 0.2652271912
C -0.3114600522 0.3264346228 0.2444087102
C 1.0268956174 0.5616409240 0.5239578393
C 1.8456349677 -0.5206684827 0.8296392688
C 1.3327065766 -1.8124517867 0.8676737719
C -0.0120919239 -2.0106035839 0.5847964864
Cl -0.5652495397 -3.6832474043 0.6093053452
O 3.1733013107 -0.3801643098 1.1698773096
C 3.9255279105 0.5931599363 0.5322045448
C 4.8128124342 1.3220846280 1.3154007059
C 5.6505525424 2.2569054196 0.7154499683
C 5.5738816888 2.4463572456 -0.6588364513
C 4.6902977717 1.7182797841 -1.4482491988
C 3.8614377810 0.7783849994 -0.8466489751
Cl 6.6248013332 3.6358860046 -1.4221707528
H -5.1239227278 1.6197616062 0.3610101371
H -5.4715376506 0.9670194712 1.9737302872
H -5.5936158206 -0.0892677401 0.5450227703
H -3.0172365096 1.1498045626 1.6650586495
H -2.5121781684 -0.9525897349 2.5813505353
H -4.2484287639 -1.3630163678 2.3975744643
H -2.1830883369 -2.8200191318 -1.4773357893
H -3.5792446047 -1.7440616393 -1.7643745637
H -3.0050276613 0.5674868546 -3.0413276116
H 0.8584782855 -0.5553070476 -4.1781188297
H -0.9564962109 1.1615079406 -0.0024939242
H 1.4243253655 1.5699901063 0.5032504451
H 1.9834947581 -2.6456632728 1.1052565612
H 4.8475278041 1.1558372937 2.3866347875
H 6.3465687242 2.8320703798 1.3152249120
H 4.6521321192 1.8721569618 -2.5206352980
H 3.1740273499 0.1949074185 -1.4499758627
