35
CONF5
C 1.0519734795 -2.3302499655 -0.5258300249
C -0.0776931598 -1.3479169312 -0.4567191177
C -1.4275416792 -1.7435211176 -0.4643004653
N -2.4372902896 -0.8701683038 -0.4017956486
C -2.1194395801 0.4413070479 -0.3382081745
N -0.8581501400 0.9260682938 -0.2774595071
C 0.1020548629 0.0250747403 -0.3410576514
O 1.3883743343 0.5561291788 -0.3530741644
C 2.1120448621 0.4231697107 0.8218320428
O 1.6181586739 -0.0389272991 1.8405773309
N 3.3665838786 0.8906672665 0.6723992450
C 4.3249324384 0.7043620785 1.7584994661
C 3.9167255284 1.2863293700 -0.6251518885
N -3.1408452073 1.3449918914 -0.3434053433
C -4.5120415623 0.8789018578 -0.1538519695
C -2.8627667958 2.7435789696 -0.0285590303
C -1.7881765113 -3.1956440638 -0.5373478101
H 2.0021777194 -1.8296776020 -0.7214964217
H 1.1514786622 -2.8874020286 0.4134856872
H 0.8869922259 -3.0624641858 -1.3222968475
H 3.7923199122 0.4925320575 2.6847989454
H 4.9149283374 1.6176202900 1.8799503920
H 5.0049144771 -0.1278438768 1.5350415652
H 3.1777893705 1.8358264628 -1.2079114927
H 4.7749279246 1.9377112000 -0.4443948489
H 4.2529610693 0.4133557302 -1.1991843408
H -5.1905209283 1.7028156763 -0.3833161923
H -4.6940478920 0.5485831684 0.8791805939
H -4.7288315553 0.0456525177 -0.8236657200
H -2.0115772612 3.1035154164 -0.6082329978
H -3.7414514632 3.3376127242 -0.2867548715
H -2.6402253692 2.8874111033 1.0389270813
H -1.4495284746 -3.6268624898 -1.4865082116
H -1.2914267391 -3.7588788469 0.2599797677
H -2.8677840534 -3.3236598291 -0.4541495837
