52
CONF16
C -1.4100311125 -3.5999514500 0.0059501765
C -1.2130863650 -2.4055577767 0.8930116616
C -1.3942902084 -1.1316308412 0.5085134607
C -1.7874707077 -0.7001180689 -0.8480485660
C -1.7807975012 0.7906081327 -1.2640951140
C -3.0843327688 0.0088372132 -1.1383094715
C -4.0533767399 0.2885943539 -0.0140437074
C -3.7587908262 -0.3063029699 -2.4567167162
C -1.3656106133 1.8378097333 -0.3201329714
O -1.6302306763 1.9249993246 0.8642735883
O -0.5763551867 2.7446940029 -0.9685678660
C 0.0287872345 3.7785398039 -0.1626184166
C 1.4076685151 3.3815253410 0.3018466148
C 1.7534171143 2.0429488173 0.4689557787
C 3.0359350914 1.7131170760 0.8993722144
C 3.9715676930 2.6984942801 1.1980180132
C 3.6100449845 4.0340885985 1.0486798390
C 2.3417260678 4.3796157707 0.5921900868
O 3.4226744348 0.4050702626 1.1230847554
C 2.9243327141 -0.6136634083 0.3282525170
C 2.7218308170 -1.8409966013 0.9527645165
C 2.3016753144 -2.9294653869 0.1948837960
C 2.0708921416 -2.7921563517 -1.1717841826
C 2.2792604625 -1.5570870051 -1.7825288653
C 2.7153440771 -0.4622221840 -1.0416141326
C -0.8089225134 -2.7332181479 2.3021277202
H -2.2128447129 -4.2326963397 0.4061011577
H -1.6680685892 -3.3376242619 -1.0216034943
H -0.5038510493 -4.2179420887 -0.0096791805
H -1.2571964963 -0.3522128377 1.2531163109
H -1.4352156092 -1.3342898312 -1.6578060922
H -1.4427702263 0.9719071148 -2.2785541483
H -3.5531663286 0.4821065100 0.9336823946
H -4.7120022088 -0.5785349666 0.1097680533
H -4.6786111314 1.1543114298 -0.2591865982
H -4.3829219661 0.5345106002 -2.7800348220
H -3.0267476195 -0.5154437244 -3.2422477674
H -4.4036165279 -1.1853738420 -2.3450872726
H 0.0859803614 4.6581904125 -0.8081493411
H -0.6203135359 4.0032025579 0.6901833117
H 1.0437600088 1.2524836712 0.2551547063
H 4.9621028866 2.4131364258 1.5355769416
H 4.3343336294 4.8110290416 1.2722435791
H 2.0773550333 5.4239435931 0.4539657063
H 2.8972055774 -1.9304846629 2.0198483019
H 2.1446130775 -3.8873415646 0.6807414589
H 1.7317676992 -3.6405097365 -1.7569536070
H 2.1125081713 -1.4414249993 -2.8490758841
H 2.8920973804 0.4940796462 -1.5214471343
H 0.1360330627 -3.2914866982 2.3117671323
H -1.5581825122 -3.3774652288 2.7801720768
H -0.6841079171 -1.8326419300 2.9093039756
