67
CONF2
C 5.5384329174 -2.0101115013 4.1417737301
C 4.1970604805 -1.7065723000 3.5535439427
O 3.2803621557 -1.1525778129 4.1237045198
O 4.1205547333 -2.1268631295 2.2652897419
C 2.9224876269 -1.7823287790 1.5645681154
C 2.9239598922 -0.3191507791 1.1555073908
O 3.8514855716 0.4165118253 1.4261424313
C 1.6897289800 0.1676432735 0.3926795877
C 2.0133674526 1.2873190814 -0.6498178094
C 1.1173627353 2.4736316690 -0.3118188462
C -0.0723808458 1.8818951089 0.4676628338
C 0.5905741473 0.7842910380 1.3399126297
C -0.4343265260 -0.2169235602 1.8824126438
C -1.5135626823 -0.6876238913 0.9147164400
C -2.2161993772 0.4806294448 0.2127192859
C -1.2073876709 1.4110363890 -0.4659873632
C -1.8854159436 2.6626360674 -1.0642459601
C -3.2718817120 2.4187741437 -1.6577271554
C -3.4116118930 0.9663161447 -1.9706819370
C -3.4362174662 0.5778911214 -3.2582834436
C -3.3080214644 -0.8215669161 -3.6588192659
O -3.3430385214 -1.1630299176 -4.8491610160
C -3.1231579379 -1.7847934875 -2.5785165832
C -3.1097303138 -1.4061085815 -1.2924683788
C -3.3384768734 0.0002767511 -0.8150836103
C -4.7380677899 -0.0691902524 -0.1194272975
F -4.2658408042 2.8257366196 -0.7234068779
F -2.8472297741 1.2313678635 1.2465125485
O -2.4461600935 -1.5182749088 1.6156158121
C 1.2628879070 1.4573400751 2.5518329417
O 1.6167851566 0.7086751674 -1.9062463198
C 1.6394761017 -0.7088977555 -1.7472584342
O 1.1615118080 -0.9042180244 -0.3950583769
C 0.6531884257 -1.3393286103 -2.7023031142
C 3.0516148269 -1.2559824161 -1.9266144604
H 6.2368463931 -1.2298617096 3.8188765375
H 5.9192045777 -2.9687438446 3.7846681887
H 5.4744455871 -1.9977204172 5.2294539449
H 2.8914273409 -2.4176771712 0.6775861607
H 2.0324658408 -1.9969851166 2.1672065156
H 3.0778589446 1.5431197517 -0.6674098403
H 0.8380321646 3.0140669323 -1.2189030702
H 1.6705197905 3.1713723323 0.3225638556
H -0.5045017388 2.6319530255 1.1405145887
H -0.9406998303 0.2684093832 2.7270531344
H 0.0615608573 -1.1036981899 2.2911180460
H -1.0675261114 -1.3151478986 0.1404530380
H -0.7797048805 0.8231724263 -1.2863527069
H -1.9844461347 3.4454736854 -0.3039902978
H -1.2494484614 3.0639656576 -1.8570296560
H -3.4398984108 3.0312671846 -2.5473205516
H -3.5023619110 1.3125774906 -4.0569986045
H -3.0199722590 -2.8299478420 -2.8563688407
H -3.0415205768 -2.1585371278 -0.5137672963
H -5.4848546126 -0.3412487390 -0.8699135717
H -5.0016763446 0.8906168463 0.3183658654
H -4.7194434132 -0.8333301259 0.6593477229
H -2.8405243703 -0.9833749302 2.3188090292
H 0.5050952771 2.0184382101 3.1055926809
H 1.6938009841 0.7093765831 3.2243255153
H 2.0597637312 2.1453707380 2.2615398370
H 0.6268930676 -2.4206306143 -2.5451589575
H 0.9653582147 -1.1438912007 -3.7312128405
H -0.3467355633 -0.9310371626 -2.5438422980
H 3.7642057130 -0.7730904173 -1.2516277655
H 3.3784203643 -1.0684565374 -2.9528971235
H 3.0652822235 -2.3342305581 -1.7463491723
