27
CONF30
C -3.5789137041 -0.0940065020 -1.0980446385
C -4.9791122201 0.2070552704 -0.5746119351
O -5.8569789039 0.0744515048 -1.6983174213
C -2.5327821651 0.0628947112 -0.0240525065
C -1.1041421249 -0.3492609744 -0.4965231572
C 0.0639577568 0.0762811905 0.4588953605
C 1.3939690210 -0.7185506523 0.2063944610
C 2.6575575842 -0.0258026869 0.8211585652
C 3.8992374697 -0.9689458173 0.9522035338
F 3.7132767006 -1.8778091791 1.9150347659
F 4.9708671941 -0.2283880114 1.2659359061
F 4.1315857493 -1.5983207789 -0.2081486146
F 2.3637747778 0.4365951726 2.0586764903
F 3.0147678712 1.0121748665 0.0349174494
F 1.2707550153 -1.9515907500 0.7496459912
F 1.5900250524 -0.8441922104 -1.1264023991
F 0.3122030371 1.3951626776 0.2763833353
F -0.3083370538 -0.1243183927 1.7429795679
F -1.0810864372 -1.7003629838 -0.6382476339
F -0.8740002039 0.2134389891 -1.7090069965
F -2.8412049522 -0.7015370203 1.0709310860
F -2.4600012174 1.3654245294 0.4082068190
H -3.5342721049 -1.1200160949 -1.4786707796
H -3.3369774906 0.5872311055 -1.9186518412
H -5.2513904262 -0.5018014293 0.2175709377
H -5.0206682883 1.2251433244 -0.1648982197
H -6.7538461535 0.2509554549 -1.3890157631
