74
CONF190
C -0.5781971511 -0.8237879336 0.4750537807
C 0.1293407660 -2.1127077446 0.8665717059
O -0.7023248069 -2.6401069281 1.9602931731
C -1.4092359543 -1.6365081860 2.5413509500
O -2.1030258646 -1.8351451027 3.5120997442
C -1.1102206128 -0.3469647758 1.8174527131
C -2.2004537356 0.7146327426 1.6547563559
C -3.5230219912 0.1595454422 1.1379481607
C -3.7871532461 0.0787109777 -0.2310087421
C -4.9898331014 -0.4630886737 -0.6890934322
O -5.3385288988 -0.5845068235 -2.0032176237
C -4.3920131247 -0.1193012884 -2.9738045675
C -5.9414875788 -0.9218913130 0.2278431972
O -7.1175812421 -1.4432468367 -0.2340864637
C -5.6762211090 -0.8235389918 1.5988596696
O -6.6885567261 -1.2919415633 2.3909701662
C -6.4891329131 -1.2512619649 3.8108698859
C -4.4764903057 -0.2838810060 2.0567360844
C -1.6500995174 1.8022888462 0.7409886422
C -2.3068841913 3.0506864269 0.7764509369
C -1.8624617490 4.0352000254 -0.0692100604
C -0.8077015802 3.8217569870 -0.9531841953
O -0.6079824876 4.9440767560 -1.7172268592
C -1.4113151147 5.9697065870 -1.0961975407
O -2.3629071370 5.2994750933 -0.2405261096
C -0.1595495274 2.6158655388 -1.0193731220
C -0.5880180020 1.5874665978 -0.1490581784
C 0.1987951909 0.2898433475 -0.1989209873
O 1.4627248961 0.5019408294 0.4961760915
C 2.5973064421 0.3054460905 -0.2792683455
O 2.7435053416 -1.1057905597 -0.5068784382
C 3.9007252208 -1.3720217551 -1.2957041947
C 3.9832814022 -2.8569898966 -1.6079982940
O 5.2247980431 -3.1014195057 -2.2863730067
C 6.3446292537 -2.7077115882 -1.5018041935
C 7.5984812515 -3.0175875372 -2.2735207920
O 6.3126069791 -1.3025226500 -1.2402653079
C 5.1351367110 -0.9716587326 -0.4969052046
C 5.1115196985 0.5184905198 -0.2156867845
O 6.1874859001 0.9193487591 0.6299445905
C 3.8003384693 0.8734110109 0.4919588451
O 3.6620150307 2.2768822047 0.6793961290
H -1.4295209979 -1.0740542435 -0.1710735477
H 0.1571450006 -2.8747124939 0.0872370034
H 1.1308074599 -1.9335900160 1.2636429505
H -0.2771088363 0.1055379825 2.3810729086
H -2.3962897435 1.1612459158 2.6362157436
H -3.0611019019 0.4609436443 -0.9373002100
H -4.8497812193 -0.3082117671 -3.9452095830
H -4.2037592382 0.9546586742 -2.8572950863
H -3.4467521652 -0.6698632609 -2.8976653565
H -7.6464239004 -1.6993869037 0.5365662209
H -5.6159172102 -1.8482522785 4.0975720969
H -6.3635910216 -0.2189376098 4.1563015231
H -7.3905799472 -1.6803058190 4.2484918427
H -4.2713779016 -0.2121725183 3.1168771941
H -3.1419968503 3.2161366964 1.4496460332
H -0.7661494789 6.6127364799 -0.4828310497
H -1.9469862687 6.5278291516 -1.8662371807
H 0.6531036660 2.4496442108 -1.7188386254
H 0.4158929500 0.0306924656 -1.2418676364
H 2.5107450724 0.8098644303 -1.2612881662
H 3.8692272342 -0.8001758210 -2.2378681035
H 3.1825675723 -3.1759276907 -2.2796191815
H 3.9316103910 -3.4384938499 -0.6738714320
H 6.3018087719 -3.2389150214 -0.5337687827
H 7.6519252116 -4.0895273669 -2.4760513284
H 8.4733041584 -2.7229539202 -1.6896734372
H 7.5962024866 -2.4712236183 -3.2209071371
H 5.1331013381 -1.5232287311 0.4594761733
H 5.1547958320 1.0594699312 -1.1773506958
H 7.0092321303 0.7062551309 0.1682342508
H 3.8025664501 0.4289228985 1.4947901225
H 3.7210073351 2.7048029615 -0.1863431006
