41
CONF1
C -1.3121537554 2.1293458782 0.1452712247
C -2.8161331732 2.0026852606 0.0215167285
O -3.2372640845 0.6362866555 0.3144500565
C -3.3582113728 0.3180877485 1.6091296353
O -3.2674436244 1.0867705063 2.5392554515
C -3.6908712405 -1.1649354257 1.7987731122
C -5.1979174596 -1.3646361351 1.7676448594
O -3.1428601520 -1.9943160094 0.7741141108
C -1.7920894198 -1.9470470940 0.5729364847
C -0.8845226919 -1.3523934182 1.4534475746
C 0.4690210729 -1.3265705588 1.1323070624
C 0.8923928836 -1.8935491335 -0.0538293725
C 0.0109103757 -2.5131483572 -0.9246131256
C -1.3382796993 -2.5398625367 -0.6073438531
O 2.2651817577 -1.9026517995 -0.3854688044
C 2.7927406598 -0.7326857051 -0.7138276092
N 2.2414479703 0.4315537555 -0.8204377943
C 3.3067789698 1.2510416118 -1.2017080895
C 3.3682775048 2.6110602018 -1.4756481868
C 4.6026016725 3.1458173484 -1.8406267330
C 5.7349132294 2.3319923650 -1.9256204723
C 5.7066914444 0.9627905594 -1.6568032792
C 4.4688928355 0.4776659201 -1.2997155499
O 4.1332317219 -0.8227648737 -0.9783728596
Cl 7.2633425149 3.0570060668 -2.3907769031
H -1.0061654916 3.1324416021 -0.1688369826
H -0.7991977091 1.3968513341 -0.4839460243
H -0.9941388287 1.9846042942 1.1806228897
H -3.1538825713 2.1658762926 -1.0042151108
H -3.3414241701 2.6841223108 0.6965135920
H -3.2937968989 -1.4511597452 2.7818338008
H -5.4330755710 -2.4158087937 1.9504985020
H -5.6669895450 -0.7537892576 2.5427284678
H -5.5937254566 -1.0762907308 0.7905988377
H -1.2092519513 -0.8939545248 2.3796273833
H 1.1833050068 -0.8507591517 1.7946467185
H 0.3796690492 -2.9540802651 -1.8438318253
H -2.0605277987 -2.9986128681 -1.2728472493
H 2.4857003889 3.2367358054 -1.4084218511
H 4.6948882272 4.2020944758 -2.0629475647
H 6.5899356817 0.3413456096 -1.7260770555
