30
CONF60
O 6.0080232263 0.1648427973 0.2175968248
S 4.7086667998 -0.4622682339 0.9455546553
O 4.8545090772 -1.9046402539 0.8346111701
O 4.4347236696 0.2161699172 2.2071616035
C 3.3650792623 0.0885638433 -0.3106746605
F 3.6004172273 1.3707292619 -0.6249087345
F 3.5006690652 -0.6790945532 -1.4038442840
C 1.9320696260 -0.0663923621 0.2924225856
F 1.8873017321 -1.2291503591 0.9819285405
F 1.7132609508 0.9618885306 1.1391904312
C 0.8059283212 -0.0831076033 -0.8017603726
F 0.8039499156 -1.2962955117 -1.3940831261
F 1.0948036330 0.8606003744 -1.7257084985
C -0.6227704701 0.2121453445 -0.2155132716
F -0.7542587208 -0.4367433026 0.9651145566
F -0.7257523486 1.5420293596 -0.0056374241
C -1.7812734210 -0.2495811209 -1.1607809311
F -1.8720114379 -1.5942706164 -1.1208933143
F -1.4712682069 0.1306780850 -2.4248199796
C -3.2132799904 0.3490916089 -0.8780486227
F -3.1896183934 1.6688070830 -1.1575427231
F -4.0410609776 -0.2642785859 -1.7592150891
C -3.7907915322 0.1492539598 0.5586446629
F -3.5835404777 -1.1256409362 0.9578856561
F -3.1458472298 0.9884913672 1.4003223999
C -5.3243667127 0.4361273475 0.6846885316
F -5.6257352619 1.6319236249 0.1627971374
F -6.0384724183 -0.5079743178 0.0637806404
F -5.6504261524 0.4347757732 1.9841630487
H 6.1353977783 1.0995677327 0.4770882736
