84
CONF4
C 0.8782627068 1.3815605577 0.2913202248
C -0.5780562425 1.3221680254 -0.1816854506
C -1.3907323656 0.4626965415 0.7702172405
O -2.7512160911 0.3764355774 0.2608227027
C -3.7764267952 0.6635870544 1.0887742503
O -3.6444285918 1.0921255145 2.2219403110
C -5.0913174973 0.3993540788 0.4503832812
C -6.2353064461 0.7193530681 1.1850234178
C -7.4910442451 0.4723132834 0.6333636877
O -8.6714603857 0.7366923988 1.2494578964
C -8.6118280002 1.3247095927 2.5582059921
C -7.5964999100 -0.0992477823 -0.6463072928
O -8.8264082282 -0.3892825428 -1.1706248704
C -9.4326847138 0.7307619854 -1.8564277302
C -6.4363484828 -0.4116948698 -1.3742112975
O -6.6486341774 -0.9529801554 -2.6012139759
C -5.4906517587 -1.3007464389 -3.3757012779
C -5.1779794788 -0.1666992226 -0.8244035538
C -0.8518180283 -0.9600709971 0.8681080138
O -1.5878068301 -1.6906847662 1.8551764965
C -2.4854752357 -2.6637620328 1.3128226235
C 0.6126484999 -0.9230564876 1.3065227417
C 1.1875556283 -2.3220638164 1.3466938559
O 0.7624908968 -3.2810716950 0.7345224750
O 2.2936824776 -2.3593908446 2.1118551687
C 2.9969762053 -3.6275883503 2.1411772977
C 1.4973522480 -0.0202734718 0.4095203973
C 1.7462247957 -0.6124889986 -0.9794104861
C 2.5818511790 0.3190406170 -1.8603212793
N 1.9662232144 1.6633798671 -1.9307839187
C 2.7891541300 2.5490126014 -2.7742201050
C 4.1967646482 2.8422845153 -2.2071959861
C 4.7710093119 1.5908350140 -1.6268688904
C 4.0223745460 0.4535985320 -1.4503624855
N 4.8083116103 -0.5318318312 -0.8734949834
C 6.0728180668 -0.0340543206 -0.6632560740
C 6.0843420740 1.3108256922 -1.1239901541
C 7.2760404514 2.0420504041 -1.0116012689
C 8.3948852567 1.4394315120 -0.4618302712
C 8.3535659781 0.1005940404 -0.0137175666
O 9.5334204211 -0.3668913632 0.5063631880
C 9.5523741062 -1.7184134126 0.9745515748
C 7.1912147405 -0.6606087171 -0.1063941424
C 1.7644226203 2.2518375669 -0.5980870777
H 0.8850496631 1.8381423190 1.2910916277
H -1.0015696129 2.3324544288 -0.2061472216
H -0.6478344772 0.9125943981 -1.1950698441
H -1.4190049861 0.9060444395 1.7706126847
H -6.1221858613 1.1530431118 2.1693175495
H -8.1068918221 2.2968417057 2.5275860488
H -9.6489799202 1.4572119184 2.8661568060
H -8.0982424991 0.6601634150 3.2620558119
H -8.8123033656 1.0355771732 -2.7068520088
H -9.5667367555 1.5734253449 -1.1696537671
H -10.4040495301 0.3829483385 -2.2114474866
H -4.8853670463 -2.0535397235 -2.8579114366
H -4.8813446836 -0.4151625669 -3.5889343898
H -5.8764990620 -1.7153681665 -4.3070131792
H -4.2759168538 -0.4066983475 -1.3681884286
H -0.9452816967 -1.4539566866 -0.1083905558
H -3.2434775726 -2.2017450210 0.6669147999
H -2.9818083640 -3.1382955508 2.1626953455
H -1.9365470594 -3.4230315593 0.7411277788
H 0.6489640824 -0.5136799790 2.3242552549
H 2.3532157610 -4.4051629078 2.5588182144
H 3.8633034486 -3.4620763394 2.7801321482
H 3.3095647907 -3.9059399595 1.1318693062
H 2.4662432328 0.0838775858 0.9148308076
H 2.2506959713 -1.5825210864 -0.9028351050
H 0.7999701427 -0.8022398870 -1.4958070267
H 2.5508161417 -0.0915608436 -2.8815884473
H 2.2437865436 3.4879938901 -2.9251891310
H 2.8908168726 2.0626485263 -3.7526585299
H 4.1504432029 3.6343336940 -1.4463361982
H 4.8290540037 3.2340830773 -3.0139798164
H 4.5133564957 -1.4687829736 -0.6505331084
H 7.3265417178 3.0723979581 -1.3523110723
H 9.3289842995 1.9835313486 -0.3645680478
H 10.5651166146 -1.8939521860 1.3392843194
H 9.3268184189 -2.4211317845 0.1628787933
H 8.8366944516 -1.8634260409 1.7933717153
H 7.1378042639 -1.6881176447 0.2321644516
H 1.2996871403 3.2361647843 -0.7374788850
H 2.7192745215 2.4111653548 -0.0660145844
