27
CONF79
C 3.0021403917 0.0423777121 -0.0914022501
C 4.2924846796 -0.6465759463 0.3499842270
C 5.5411105115 0.0622415493 -0.1638279681
O 5.5962653313 0.1279380247 -1.5909604351
C 1.7698618205 -0.7107915250 0.4128043630
C 0.4802856420 -0.0692886455 -0.0473342332
C -0.7874986925 -0.7588950039 0.5260956721
C -2.1905200354 -0.3570019264 -0.0459764577
C -2.5761445652 1.1537344527 -0.0570598380
F -2.3636949476 1.7091687574 1.1433866062
F -3.8810495736 1.2586238285 -0.3526974427
F -1.8803188549 1.8188065321 -0.9849952630
F -3.1091049388 -0.9953365867 0.7224322659
F -2.2979123955 -0.8148435708 -1.3126448519
F -0.8061557519 -0.5547711115 1.8679085520
F -0.6777874039 -2.0982681113 0.3047724780
F 0.3883554584 -0.0923441455 -1.4130640993
F 0.4331066098 1.2440584539 0.3427552210
H 2.9895256347 1.0697617526 0.2890668878
H 2.9803620479 0.1069154112 -1.1833664358
H 4.3431578042 -0.6875490675 1.4470567441
H 4.2986377337 -1.6899569032 0.0017801880
H 6.4430104903 -0.4214820403 0.2413132091
H 5.5458562354 1.1046445414 0.1735012794
H 1.7554209651 -0.7465302081 1.5080178254
H 1.7745672170 -1.7434474935 0.0499469656
H 5.6883761408 -0.7707006631 -1.9264513697
