47
CONF38
C 3.7012232628 -1.5746167227 4.1119943771
C 3.6681085117 -1.7307446918 2.6431338321
C 2.7464019073 -1.4151569704 1.6771358749
C 3.3573224987 -1.8659391792 0.4587222227
N 4.5369222158 -2.4006684410 0.6807473010
O 4.7282972728 -2.3245453647 2.0701988181
C 2.8644090099 -1.7773888504 -0.9252444341
C 2.9211211178 -2.8963571998 -1.7617011555
C 2.4481209252 -2.8156333020 -3.0663600376
C 1.9149268050 -1.6230823406 -3.5464408815
C 1.8674730187 -0.5015648774 -2.7222114873
C 2.3436796654 -0.5747636253 -1.4191567174
C 1.4185537123 -0.8275034815 1.9453466028
O 1.1743541627 -0.1600565298 2.9473237624
N 0.4511464035 -1.0930259992 1.0160380830
C -0.8259454569 -0.4474471956 1.1121290128
C -0.9009526403 1.0765701401 0.7615010355
N -1.6748500487 0.7175839261 -0.4355187760
C -1.7380283841 -0.6419910279 -0.1193330601
O -2.3107406987 -1.5630515382 -0.6387227740
C -2.7719772851 1.5783147205 -0.8112508596
C -3.4143083690 2.0859719365 0.5347661974
S -1.9827520937 2.1897924137 1.7432750430
C -4.0644070083 3.4618033761 0.4205353996
C -4.4324858053 1.0496205744 1.0150975789
C -2.3535146297 2.7148709580 -1.7281203610
O -3.0844357455 3.2207374062 -2.5434779904
O -1.0796684758 3.1173377990 -1.5102162954
H 4.5100032721 -0.8940420975 4.3982364757
H 3.8900015495 -2.5394432434 4.5926281796
H 2.7538687115 -1.1580257001 4.4523924236
H 3.3308974251 -3.8231694958 -1.3755641230
H 2.4890217956 -3.6897687594 -3.7077510463
H 1.5367388263 -1.5666858943 -4.5617731290
H 1.4619460378 0.4333186931 -3.0947371559
H 2.3225503332 0.3026757408 -0.7800763433
H 0.6866752257 -1.5784174963 0.1625932674
H -1.3296435589 -0.6702956433 2.0584282873
H 0.0600192063 1.5583950553 0.5660087371
H -3.5152476077 0.9930394201 -1.3619615983
H -4.8605099699 3.4374728245 -0.3305815728
H -3.3418253466 4.2312669729 0.1383844496
H -4.5068000290 3.7455749889 1.3794839773
H -4.0011507922 0.0459882558 1.0593537541
H -4.7863669029 1.3077601439 2.0162857049
H -5.2934242513 1.0258950344 0.3361794714
H -0.9147484715 3.8593954780 -2.1142948593
