63
CONF137
C -10.4455197496 1.2213424893 3.4502289430
C -9.6790754564 0.6932614270 2.2395383383
C -8.1674029965 0.8740445914 2.3718087302
C -7.3882777435 0.3476661460 1.1677301715
C -5.8773655900 0.5316809666 1.2996188551
C -5.0982123289 0.0018442646 0.0968889983
C -3.5875341057 0.1884434254 0.2272171313
C -2.8083912620 -0.3454372510 -0.9737142510
C -1.2983596856 -0.1508858968 -0.8479566223
C -0.5192080956 -0.6912458011 -2.0459789902
C 0.9907676447 -0.4923040953 -1.9228621015
C 1.7625412887 -1.0344362547 -3.1266410233
C 3.2846065555 -0.9490087989 -2.9835911316
C 3.8200253935 0.4820158937 -2.9078360077
C 5.3489889715 0.5717359046 -2.9576029520
C 6.0764011870 -0.1883754052 -1.8428476648
C 5.6869047573 0.2529934945 -0.4323285656
C 6.5102747993 -0.4363242825 0.6553266524
C 6.1210587444 0.0030963947 2.0665418718
C 6.8834239003 -0.7284394532 3.1650442023
O 8.2898191236 -0.4642395352 3.1489098340
H -11.5248722396 1.0824511692 3.3357741566
H -10.1364651467 0.7043493123 4.3651777034
H -10.2589873730 2.2908662562 3.5959339510
H -10.0253018345 1.2040783842 1.3313714583
H -9.9038689967 -0.3718303732 2.0959114642
H -7.8197031017 0.3645342627 3.2815856298
H -7.9410647976 1.9401832581 2.5143362142
H -7.7381159248 0.8558272250 0.2581520399
H -7.6135916046 -0.7188603830 1.0272861573
H -5.5276351902 0.0258607303 2.2105326003
H -5.6516625128 1.5984641212 1.4372862338
H -5.3223469894 -1.0654442258 -0.0395887928
H -5.4492299281 0.5062749239 -0.8143028019
H -3.3632249004 1.2561064750 0.3604041754
H -3.2366065732 -0.3132272892 1.1399804464
H -3.1636466234 0.1513972406 -1.8874382725
H -3.0279679385 -1.4145774222 -1.1028607358
H -1.0787965498 0.9188415102 -0.7239259430
H -0.9430590940 -0.6436002367 0.0680386536
H -0.7368765139 -1.7616227041 -2.1680977206
H -0.8756091700 -0.2009810188 -2.9628527966
H 1.1993262697 0.5774454470 -1.7934086341
H 1.3506872511 -0.9889223795 -1.0099150895
H 1.4771264105 -2.0831995420 -3.2837012307
H 1.4510849853 -0.4929723692 -4.0310605697
H 3.5879157811 -1.5095730252 -2.0889147391
H 3.7552212663 -1.4565982644 -3.8369583750
H 3.4063475989 1.0586124680 -3.7463837771
H 3.4541364486 0.9706868412 -1.9970766906
H 5.6964711873 0.1929633516 -3.9280619987
H 5.6437435621 1.6287513025 -2.9152348317
H 7.1577226451 -0.0481875440 -1.9726947973
H 5.8977706441 -1.2667623774 -1.9467070668
H 4.6229951645 0.0476561212 -0.2549498907
H 5.8076685137 1.3421288334 -0.3443038233
H 6.3903861512 -1.5262194343 0.5650656200
H 5.0472262415 -0.1754331686 2.2182128101
H 6.2851700097 1.0824347579 2.1776857207
H 6.6928668682 -1.8124479082 3.0978282491
H 6.5379024703 -0.3942273958 4.1485648791
H 8.6526892757 -0.8446217669 2.3423672769
H 7.5733771248 -0.2205202787 0.4776640518
