35
CONF86
C -1.9373265612 1.3219101062 2.0479669930
C -2.3719234124 2.7664686945 1.9436040397
C -1.3047749995 3.7324930567 1.4898823893
Br 0.1262205438 3.8284287572 2.8658878543
Br -3.8512882207 2.9362319134 0.6132742517
O -1.3602278062 0.8884089088 0.7989453903
P 0.1365946510 0.3063123751 0.7536999854
O 0.6328332271 -0.2768705283 2.0180322504
O 1.0019572827 1.5115221466 0.1522266716
C 2.3465533733 1.7744209768 0.6067806668
C 3.3493204608 1.5070878698 -0.4936667195
C 3.3450148134 0.1127000605 -1.0731374040
Br 3.9252264223 -1.1781989984 0.3182981722
Br 3.0097029232 2.7396219459 -2.0286788642
O 0.0557796083 -0.6319498828 -0.5415348697
C -0.9118145604 -1.6912933617 -0.6726131164
C -0.2712646147 -3.0539226634 -0.5193878387
C 0.3719892911 -3.3290213256 0.8189945259
Br -1.0561870213 -3.4811722264 2.1900322828
Br 1.1489957346 -3.2778812557 -1.9042212137
H -2.7954902151 0.6790080771 2.2596318319
H -1.2076653588 1.2204462105 2.8604371795
H -2.8172985436 3.0767718570 2.8911218972
H -0.8229440778 3.4084789377 0.5680377361
H -1.6874255415 4.7462193647 1.3971437215
H 2.5808939619 1.1409394349 1.4710544985
H 2.3813538727 2.8234026001 0.9080702380
H 4.3435631920 1.7838375807 -0.1361634753
H 2.3546843458 -0.2068757968 -1.3967268884
H 4.0651454621 0.0120655862 -1.8820690622
H -1.7052033983 -1.5887382791 0.0779516659
H -1.3503826780 -1.5881141251 -1.6678338241
H 1.0270448680 -2.5230997794 1.1507250771
H 0.8869821276 -4.2870009975 0.8286720595
H -1.0104207879 -3.8194761067 -0.7652031729
