44
CONF16
C -5.0143841712 0.3467838263 3.6706187483
C -3.8198413918 -0.3017057597 2.9990529796
C -4.1611125607 -1.0598592980 1.7176299304
O -4.0454127408 -0.0370649641 0.7123444902
C -2.9245121996 0.7361700013 1.0996620609
O -2.9060121331 0.7266450231 2.5232542077
C -3.1852604425 2.1809824552 0.6366743332
N -3.1229263584 2.3000637927 -0.8087368113
C -4.0621813010 1.9775214186 -1.7215619423
N -3.5814361842 2.1314102615 -2.9491459369
C -2.3051423108 2.5517514446 -2.7195739711
N -1.9786109755 2.6673271411 -1.4389724120
C -1.6355010952 0.1571971873 0.5105235447
C -0.3504172127 0.5562979491 0.8880218933
C 0.7961443183 0.0399370699 0.2968021835
C 0.6599941734 -0.9073553410 -0.7136514607
C -0.6001468717 -1.3175526578 -1.1351913742
C -1.7220104042 -0.7777690147 -0.5258841785
O 1.7399789624 -1.4249384637 -1.3909044875
C 2.9681897581 -1.5042306671 -0.7532419759
C 4.0763793755 -1.0249211023 -1.4404794297
C 5.3426580211 -1.1587207683 -0.8794026347
C 5.4674734597 -1.7641618027 0.3647052896
C 4.3616605538 -2.2469527814 1.0568428429
C 3.0996008380 -2.1195913446 0.4887017510
Cl 7.0656317272 -1.9294728689 1.0829626278
Cl -0.0883010920 1.7874942234 2.1211452269
H -5.5915088388 0.9293388345 2.9453180855
H -5.6623541473 -0.4232976803 4.1016639382
H -4.6844648002 1.0103827876 4.4745431763
H -3.2662802167 -0.9326157548 3.7026687300
H -3.4491947669 -1.8724266752 1.5218383140
H -5.1838853781 -1.4397890324 1.6934180676
H -4.1815350718 2.4704386049 0.9810913632
H -2.4396369161 2.8501401350 1.0668872816
H -5.0576771033 1.6536857364 -1.4483972223
H -1.6021508978 2.7857990506 -3.5090977788
H 1.7744787541 0.3835777616 0.6102299312
H -0.6907022897 -2.0461299267 -1.9330211334
H -2.7063180131 -1.0897091224 -0.8556637047
H 3.9466881897 -0.5531435608 -2.4083586415
H 6.2161758419 -0.7898261452 -1.4045134251
H 4.4810347590 -2.7255646575 2.0220349156
H 2.2261749680 -2.4989062562 1.0085476930
