47
CONF34
C -3.0950831893 -3.7472143747 -0.2721686582
C -3.0460297980 -2.4919130189 -1.1502414723
C -3.0343423203 -2.9008203102 -2.6288068514
C -1.8737568126 -1.5304625046 -0.8697945433
C -0.4718264219 -2.1627434996 -0.7376385355
C 0.3867233175 -1.1189763266 0.0254275287
C -0.5644575700 0.0501526792 0.3607588371
C -0.2001866611 0.8141827837 1.6375235008
C 1.1569871924 1.4577511074 1.5255649981
C 2.2725812665 0.9169258359 2.1686091180
C 3.5363522445 1.4871255822 2.0321071365
C 3.6747263637 2.6172838502 1.2381770156
Cl 5.2680575570 3.3529951015 1.0566070583
C 2.5873015203 3.1866270790 0.5855446399
C 1.3358579704 2.5987210944 0.7358874729
C -1.9625088703 -0.6054156997 0.3651342559
O -2.2031159029 -1.3246662046 1.5868636399
C -3.1365914005 0.3847455624 0.3471514916
N -3.1343809232 1.2960454962 -0.7858336865
C -3.7182177748 1.1431056806 -1.9915413037
N -3.4603084540 2.1893624146 -2.7673537072
C -2.6917828236 2.9739247373 -1.9607871311
N -2.4672191538 2.4769123795 -0.7507380040
H -2.2470194560 -4.4083586906 -0.4798498473
H -3.0961064298 -3.5084204685 0.7933865759
H -4.0077781607 -4.3111250056 -0.4931178184
H -3.9766408761 -1.9331411080 -0.9745181911
H -3.0845453034 -2.0251659578 -3.2851428118
H -2.1184134903 -3.4528913946 -2.8695763294
H -3.8853718062 -3.5502682987 -2.8593193796
H -1.8297473385 -0.8403150688 -1.7248906491
H -0.5230538032 -3.0974190944 -0.1699791288
H -0.0525023983 -2.4119283823 -1.7156442596
H 1.2421792488 -0.7725720682 -0.5599742710
H 0.7930253520 -1.5498689588 0.9484937881
H -0.5519453271 0.7583985055 -0.4765285023
H -0.2131429023 0.1255443057 2.4884482188
H -0.9530705402 1.5889368672 1.8259821511
H 2.1572612749 0.0331283085 2.7896761757
H 4.3950144719 1.0590509028 2.5372130240
H 2.7140329113 4.0736760256 -0.0250320082
H 0.4810670317 3.0393137543 0.2294600372
H -3.1208216352 0.9854500637 1.2601761241
H -4.0771533383 -0.1731795618 0.3267766146
H -4.3155441641 0.2774172324 -2.2479372335
H -2.2932939706 3.9339516679 -2.2640146313
H -1.5211953432 -2.0019321905 1.6841358879
