71
CONF584
C 6.1840155542 -3.1419939947 -1.0743858076
C 7.0272339638 -2.4848669525 -0.0183680419
C 6.4563903119 -2.0756731701 1.1988740482
C 7.2156314446 -1.4468817422 2.1985267650
C 8.5815110848 -1.2623736450 1.9637364176
C 9.1674882084 -1.6704131124 0.7710637123
C 8.3915730912 -2.2701308472 -0.2163670777
C 6.5914407270 -0.9556791628 3.4723699655
N 5.0641105286 -2.2846762082 1.3849400264
C 4.5141172318 -3.0897784616 2.3247740912
O 5.1532013615 -3.7158887418 3.1720174674
C 2.9965686112 -3.2268475502 2.2288744689
N 2.3637668577 -2.2110657409 1.3984738528
C 2.1673643899 -0.9576804592 2.1399426327
C 1.5870367438 0.1064944734 1.2240639716
N 0.2967851285 -0.3311659808 0.6787000667
C 0.4960601455 -1.5851803888 -0.0583641737
C 1.0785866092 -2.6579829058 0.8483954420
C -0.2755987595 0.7144916413 -0.1794688762
C -1.7479788558 0.4875238767 -0.5106669069
C -2.3122169329 1.6384547809 -1.3429562022
C -3.8052360316 1.4709546508 -1.6755842324
C -4.7173962063 1.4239978314 -0.4602819886
C -4.4521605179 2.1346943369 0.7134740278
C -5.3362514821 2.1071512217 1.7900970702
C -6.4911549117 1.3550007393 1.6720228752
C -6.7957888359 0.6315895368 0.5319154843
C -5.8965903827 0.6748111396 -0.5294033288
F -7.3577896925 1.3185956662 2.7210844229
C -4.2568411053 2.5485915688 -2.6491039645
C -4.3809395311 3.8817029648 -2.2450520699
C -4.7630287602 4.8741107706 -3.1423500805
C -5.0230763754 4.5073762205 -4.4524697018
C -4.9148625945 3.2026143304 -4.8974646581
C -4.5269936497 2.2266162695 -3.9808134396
F -5.4050686665 5.4707627726 -5.3353203440
H 6.8057221911 -3.4832162116 -1.9047757949
H 5.6396150118 -4.0010005151 -0.6671963858
H 5.4330941917 -2.4506771731 -1.4756961042
H 9.1837191392 -0.7762337510 2.7263094119
H 8.8465140468 -2.5850826985 -1.1513325184
H 7.2450848789 -0.2294338382 3.9607868547
H 6.4115384678 -1.7830544020 4.1665377944
H 5.6215793456 -0.4853754943 3.2802168132
H 2.8135240302 -4.2179042562 1.7925339780
H 2.6031989693 -3.2567604063 3.2600016801
H 1.4908440455 -1.1154412069 3.0014116626
H 3.1336512406 -0.6159722287 2.5293043418
H 2.3157456391 0.3248876015 0.4168914614
H 1.4351536077 1.0291830198 1.7959527428
H -0.4642141008 -1.9399654382 -0.4451438010
H 1.1734520309 -1.4312206225 -0.9227812552
H 1.2419195765 -3.5722924918 0.2668130098
H 0.3553021076 -2.8893660954 1.6535454728
H 0.3076419490 0.8214947565 -1.1166190912
H -0.1859830370 1.6669036049 0.3595060675
H -1.8847826630 -0.4462008463 -1.0693109229
H -2.3091456798 0.3863520641 0.4257333640
H -2.1487244267 2.5959001787 -0.8315471924
H -1.7666814225 1.7040384714 -2.2926004853
H -3.9178400475 0.5100260691 -2.1927692171
H -3.5414431493 2.7170650474 0.8087173900
H -5.1317431636 2.6537136753 2.7046335870
H -7.7091132081 0.0484604556 0.4808829203
H -6.1183873275 0.1138837653 -1.4335102776
H -4.1828108296 4.1559131484 -1.2131125566
H -4.8622501882 5.9099446722 -2.8355057987
H -5.1300359256 2.9575612334 -5.9321528585
H -4.4352810105 1.1960430244 -4.3122122305
H 10.2291656178 -1.5130491378 0.6063689681
H 4.4046724380 -1.9380177775 0.6924331573
