27
CONF5
C -5.1315872287 -0.0815869720 -0.2531614347
C -4.2680173605 -0.5179643183 -1.2610273577
C -2.8915157167 -0.4487546323 -1.0960912031
C -2.3572591683 0.0662116894 0.0971657249
C -3.2269187547 0.5064353612 1.1049563795
C -4.6036245786 0.4310415845 0.9304652439
N -0.9818121003 0.1921022761 0.3813248675
N -0.2044239997 -0.2629621822 -0.5254734386
C 1.1492318709 -0.1701886332 -0.3299917271
C 1.8458554857 0.4006701727 0.7986465164
N 3.1864416974 0.4294488133 0.8690199427
C 3.9075153774 -0.0847376404 -0.1374170896
C 3.3199823325 -0.6691178652 -1.2915048142
C 1.9540098911 -0.6984714858 -1.3615605282
N 5.2524106683 -0.0219235553 -0.0176726681
N 1.1698131361 0.9327150514 1.8316847364
H -6.2062653304 -0.1400422510 -0.3929470905
H -4.6762576812 -0.9151081090 -2.1859033246
H -2.2242297290 -0.7856373808 -1.8806496743
H -2.8020409833 0.9047096567 2.0217621030
H -5.2661944911 0.7737269490 1.7192698047
H 3.9440184652 -1.0726571758 -2.0808904252
H 1.4482238809 -1.1327045209 -2.2188484783
H 5.6632479787 0.3658400668 0.8153989321
H 1.6855788741 1.3167735802 2.6076107474
H 0.1560719702 0.9114503277 1.8021893713
H 5.8528497080 -0.4186402102 -0.7194951138
