23
CONF3
C -1.8229935296 -0.2789608402 1.3039350921
C -1.1177333724 -0.4478684411 0.1075186852
C -1.7197420153 -0.0976410231 -1.0999388444
C -3.0103189274 0.4067548749 -1.1261332962
C -3.7088213699 0.5649092597 0.0651391452
C -3.1308241367 0.2256347102 1.2948060421
Br -4.0863975917 0.4438746973 2.9075437768
Br -5.4727632431 1.2532566417 -0.0528809209
Br -0.7605159625 -0.3135759545 -2.7185032704
O 0.1245105046 -1.0206355461 0.1187167576
C 1.2232600229 -0.1992105212 0.1743888940
C 1.1314755792 1.1815561043 0.2839671383
C 2.2855935308 1.9563779673 0.3396064733
C 3.5393984876 1.3497262506 0.2872911411
C 3.6278346375 -0.0364207201 0.1790475674
C 2.4786183352 -0.8077549815 0.1223843719
Br 2.6132930679 -2.6925059514 -0.0271247054
Br 5.1541286611 2.3441629679 0.3577470542
Br 2.0795283686 3.8365609343 0.4867369050
Br -0.9428082291 -0.7522827170 2.9073836959
H 4.5988726204 -0.5130636685 0.1375048461
H 0.1606684961 1.6603989851 0.3270308541
H -3.4735373205 0.6741142249 -2.0666098412
