55
CONF91
C 0.7461774178 0.3211113358 1.8443435832
C 2.0312945044 -0.3473660734 1.3851279422
N 3.1923813428 0.4814007659 1.7314401930
C 3.0409844633 1.8044528797 1.1170298835
C 1.7501113108 2.4653034851 1.5754713640
N 0.5956109134 1.6360827867 1.2104548589
C -0.6752772077 2.2833645299 1.5648318371
C -1.7993938633 1.9664864397 0.5604477204
C -2.2280782044 0.5395866652 0.6043069331
C -2.1712793905 -0.3843203614 -0.3759286460
C -2.4775340269 -1.7990353950 -0.0821177819
C -3.5723572628 -2.1728694253 0.7069835449
C -3.7958185905 -3.5032493769 1.0404252836
C -2.9333437792 -4.4934733032 0.5719622054
C -1.8594443477 -4.1520977642 -0.2421004614
C -1.6377112946 -2.8131946504 -0.5686054658
S -0.2162139277 -2.4188483144 -1.5677576766
C -0.7942522147 -0.9534993101 -2.3810878160
C -1.7169065488 -0.1008851129 -1.7503945701
C -2.1967217539 0.9958145864 -2.4715934062
C -1.7053853322 1.2822051165 -3.7409514410
C -0.7345207986 0.4690229022 -4.3264585920
C -0.2965410632 -0.6609263691 -3.6527425645
C -2.1864490269 2.5056135197 -4.4565270197
F -3.4703646848 2.8129840592 -4.1500541183
F -2.1181748479 2.3783555942 -5.8031922331
F -1.4442076706 3.6053822056 -4.1371380208
C 4.4567400887 -0.1506162215 1.3360951930
C 4.8231132217 -1.2669068168 2.3055978133
O 4.8196819949 -0.7835459291 3.6536876472
H 0.7569016668 0.4132816514 2.9490639374
H -0.1006400485 -0.3147222431 1.5697072605
H 2.1159900874 -1.3229183707 1.8758126961
H 1.9825045788 -0.5218608922 0.2919193976
H 3.8920139532 2.4298623625 1.4102882844
H 3.0358955757 1.7317736499 0.0115942792
H 1.7984147314 2.6362513933 2.6697403868
H 1.6577874013 3.4414307736 1.0856836665
H -0.9946890306 2.0187437151 2.5896024832
H -0.5234584854 3.3682882767 1.5494818537
H -1.4576973287 2.2580679816 -0.4354043039
H -2.6559975824 2.6073869866 0.8156266665
H -2.5447505399 0.1890225056 1.5871339890
H -4.2510486284 -1.4013304812 1.0573791027
H -4.6477061387 -3.7691569795 1.6576937682
H -3.1055094860 -5.5351499003 0.8225586629
H -1.1967339548 -4.9207412362 -0.6276012617
H -2.9640278800 1.6214259256 -2.0299764696
H -0.3469846342 0.6937590534 -5.3137051918
H 0.4222844157 -1.3260835424 -4.1199917073
H 5.2405458351 0.6157267351 1.3747942992
H 4.4228088717 -0.5459276039 0.3031105051
H 4.1354710463 -2.1198644467 2.2028336350
H 5.8331857596 -1.6266071799 2.0836670710
H 4.0693199970 -0.1669905613 3.6887255982
