43
CONF6
C 0.0281683455 3.0804472635 3.8667852646
C 0.6169342880 1.6926961872 4.0208102516
O 0.8221262340 1.0465958065 2.7468523696
N -0.4132515524 0.6732720289 2.2390188052
C -0.3318091559 0.1453335206 1.0764405937
C -1.5549826151 -0.3328785576 0.4097336129
C -1.8255498166 0.0299119793 -0.9250176734
C -2.9845150698 -0.4086078878 -1.5591584618
C -3.8841568031 -1.2150030852 -0.8722493821
C -3.6215267754 -1.5943372650 0.4335539204
C -2.4617119515 -1.1636377976 1.0888006502
O -2.2387321444 -1.5513852856 2.3724480401
C -1.3340648742 -2.6652377646 2.4888069433
Cl -4.7413826256 -2.6418066427 1.2734585187
O -0.8922646541 0.8238847485 -1.5196536542
C -1.0286721989 1.0894222726 -2.9143072073
O 0.8787885086 0.1335097677 0.4069777865
C 1.1473823071 -0.8604935553 -0.5021286235
O 0.6009051719 -1.9369617555 -0.4906549521
C 2.1947240093 -0.4428378453 -1.4602027688
C 2.7090793069 0.8575043148 -1.4834803421
C 3.6698058599 1.2013632053 -2.4264780735
C 4.1200303017 0.2556463628 -3.3446991612
C 3.6083088754 -1.0404037277 -3.3217786691
C 2.6480196964 -1.3904858768 -2.3830253087
H 0.6690916060 3.7037572334 3.2365043463
H -0.9650776257 3.0244713890 3.4142737431
H -0.0647078265 3.5576770453 4.8478345966
H 1.6216223507 1.7288387186 4.4534141267
H -0.0181354903 1.0528148262 4.6450378844
H -3.2043238764 -0.1242102520 -2.5795090939
H -4.7906067457 -1.5569442044 -1.3580215870
H -1.7476253493 -3.5474289034 1.9851561777
H -1.2334438583 -2.8591693692 3.5576070699
H -0.3571098149 -2.4224307843 2.0552634064
H -1.9186263105 1.6978350128 -3.1183382658
H -0.1336001258 1.6462304220 -3.1947619699
H -1.0747192335 0.1562554314 -3.4891696749
H 2.3503182555 1.5873392310 -0.7680432330
H 4.0699397894 2.2098506166 -2.4453501262
H 4.8714192436 0.5285161852 -4.0789441014
H 3.9602786034 -1.7768960710 -4.0365933095
H 2.2336536557 -2.3920163615 -2.3472123625
