42
CONF35
C -6.9463642797 3.0199540268 0.0286598979
C -6.3038958104 1.6935645482 0.4250384401
C -4.9352150915 1.5159579646 -0.2110619090
O -3.9868280777 2.4744410974 0.2382770886
C -3.2926392928 1.8580303592 1.3262496619
C -3.1993786650 0.4064796840 0.8682554453
O -4.4062484635 0.2205803980 0.1228751469
C -2.0089480121 0.1476651598 -0.0436464242
O -0.8460828740 0.2238337696 0.7801468917
C 0.3719515499 0.0342397171 0.1893421296
C 0.5581535825 -0.2448156201 -1.1639884900
C 1.8499765070 -0.4280991235 -1.6574525294
C 2.9402885289 -0.3223335247 -0.8100165885
C 2.7589075458 -0.0330166849 0.5420494100
C 1.4785982027 0.1387827940 1.0390290128
O 4.2101969476 -0.4252621787 -1.3572605569
C 5.0860461216 -1.3473850824 -0.8253551515
C 4.6680435866 -2.4928322695 -0.1500505590
C 5.6240679116 -3.3931153243 0.3108864582
C 6.9801205984 -3.1632817184 0.1009702701
C 7.3810408397 -2.0173081148 -0.5822854191
C 6.4408704485 -1.1053375797 -1.0444024356
H -6.3238367582 3.8615698183 0.3445166819
H -7.9319069751 3.1305105814 0.4887351853
H -7.0755469218 3.0856994566 -1.0571873666
H -6.9266630208 0.8480894431 0.1105678932
H -6.1930144413 1.6204207270 1.5134800810
H -4.9930378501 1.6151782838 -1.3054243126
H -2.3199500963 2.3428732203 1.4336423640
H -3.8576101152 1.9457892914 2.2653152719
H -3.1871912327 -0.2992631828 1.7066653390
H -1.9763172674 0.9075903427 -0.8387231192
H -2.1027211429 -0.8481081944 -0.4982802949
H -0.2819443060 -0.3275429491 -1.8421402539
H 2.0144610346 -0.6478519440 -2.7066660744
H 3.6214232444 0.0539608936 1.1945386244
H 1.3128721958 0.3656870330 2.0866010609
H 3.6114086430 -2.6766938568 0.0083932012
H 5.2988289920 -4.2865228224 0.8347246708
H 7.7176802172 -3.8705484878 0.4641531866
H 8.4358553943 -1.8267195187 -0.7531438816
H 6.7345498090 -0.2068085395 -1.5760279517
