74
CONF230
C -0.5079959176 -0.5751534530 0.8528076301
C 0.2848943009 -1.5208367968 1.7422632470
O -0.4443922178 -1.4804602704 3.0195228881
C -1.1649742239 -0.3327652367 3.1168273679
O -1.7858530304 -0.0634011921 4.1191942663
C -0.9765710956 0.4697443726 1.8528694492
C -2.1257259066 1.3162190287 1.2973773672
C -3.4494423843 0.5642062450 1.2113519508
C -4.3216972041 0.5972449296 2.3011467097
C -5.5164767892 -0.1174286293 2.2487139433
O -6.4543642643 -0.1676719646 3.2434568996
C -6.1621281588 0.5285351187 4.4629980383
C -5.8564123426 -0.8657410785 1.1153868459
O -7.0268265988 -1.5685358496 1.0500340309
C -4.9868113134 -0.8830595302 0.0197128683
O -5.4038222240 -1.6264463268 -1.0462404189
C -4.5378290877 -1.6707227908 -2.1877067542
C -3.7905627691 -0.1649701875 0.0701267010
C -1.6908573420 1.8467186328 -0.0634095571
C -2.4097252312 2.9494868248 -0.5715928206
C -2.0823085204 3.4110755524 -1.8214937376
C -1.0808642414 2.8164329896 -2.5831612904
O -0.9646338488 3.4567119090 -3.7881384531
C -1.9325941336 4.5294559961 -3.7695011081
O -2.6401359873 4.4524610462 -2.5104904414
C -0.3692704567 1.7404921520 -2.1190899129
C -0.6808391106 1.2486281470 -0.8304681961
C 0.1706557758 0.1014902596 -0.3196984713
O 1.4564095672 0.6460668185 0.1063925112
C 2.5628152623 0.1660993259 -0.5855584522
O 2.8556480539 -1.1593781942 -0.1238701020
C 3.9843150777 -1.6745361790 -0.8278480365
C 4.2281408622 -3.1179963250 -0.4210004970
O 5.4255039774 -3.5694102646 -1.0696151159
C 6.5477749481 -2.7649675338 -0.7225726990
C 7.7589910018 -3.3126898865 -1.4281968798
O 6.3565522343 -1.4134470021 -1.1411068136
C 5.2224565149 -0.8489418228 -0.4785779336
C 5.0312380197 0.5980387028 -0.9045763586
O 6.1430850755 1.4215003806 -0.5647625815
C 3.7269109983 1.1189484181 -0.2933927374
O 3.4601868894 2.3995923827 -0.8552279265
H -1.3854043828 -1.1086069576 0.4661784180
H 0.2954028891 -2.5593958243 1.4101605126
H 1.3020625593 -1.1667992142 1.9251283295
H -0.1335565174 1.1459473857 2.0724984928
H -2.2781464522 2.1717557448 1.9649829725
H -4.0584155523 1.1708249508 3.1803217962
H -6.0628414085 1.6048239738 4.2826977599
H -7.0108277981 0.3415239632 5.1209500561
H -5.2442779360 0.1419555831 4.9203674367
H -7.4924141568 -1.4408036022 1.8903325171
H -4.3993582844 -0.6709875990 -2.6161965073
H -3.5624575889 -2.0976173471 -1.9254384094
H -5.0379782790 -2.3142934041 -2.9119115787
H -3.1293844190 -0.1514001192 -0.7870518426
H -3.2021581614 3.4076266422 0.0114364879
H -1.4100622249 5.4900355194 -3.8319291095
H -2.6428866993 4.3906787658 -4.5908188434
H 0.4050947414 1.2761456498 -2.7205745697
H 0.3522873131 -0.6158584645 -1.1286005364
H 2.3746423166 0.1302766562 -1.6744233018
H 3.8138885557 -1.6266508772 -1.9161619984
H 3.4172481521 -3.7722027382 -0.7504237846
H 4.3315573085 -3.1858373386 0.6736522650
H 6.6609988442 -2.7746229342 0.3769029244
H 7.9325507522 -4.3448234349 -1.1160580390
H 8.6362825156 -2.7133796545 -1.1750574605
H 7.6029690498 -3.2846880172 -2.5102471550
H 5.3742925388 -0.8907550305 0.6157202048
H 4.9532162606 0.6435520860 -1.9987106619
H 6.2442715505 1.4054382597 0.3973258805
H 3.8427348337 1.1816438380 0.8018889127
H 2.6582048540 2.7359059425 -0.4323537811
