43
CONF3
C -1.1154692424 2.4908418540 2.3913279568
C -0.8115683100 1.7922822003 1.0665530011
C 0.3132711761 2.5002402045 0.3136312317
C -0.4635209876 0.3114810534 1.3449062633
C -0.2547705265 -0.5011763929 0.0978651031
C 1.0156315643 -0.9756730552 -0.2707987656
C 1.1451322252 -1.6721393525 -1.4788565447
N 0.1260742376 -1.9335283628 -2.2849511082
C -1.0830825150 -1.4989093813 -1.9384470866
C -1.3245117241 -0.7699352628 -0.7730273543
C -2.7124436496 -0.3288254413 -0.4119907074
O -3.2957954586 -0.6905730669 0.5847811743
O -3.2026764815 0.5137638685 -1.3291951208
C -4.5690335498 0.9438884362 -1.1029202945
C -2.1599501902 -1.9063870181 -2.9216721243
F -2.4127478253 -0.8893020035 -3.8093603892
F -3.3391553159 -2.1808254956 -2.2712764013
C 2.4983059333 -2.1568090934 -1.9903501742
F 3.2488344661 -2.6993516635 -1.0036547561
F 2.3655123467 -3.0883173201 -2.9460656493
F 3.2057265465 -1.1302215907 -2.5174489440
C 2.1860919193 -0.7419578009 0.6104758526
N 3.0456672597 0.1673319973 0.4036963478
C 4.0432287251 0.2295884033 1.4744822231
C 4.0915980863 -1.1112677710 2.2282065693
S 2.3935387140 -1.8019609417 2.0513357208
H -1.9437578588 2.0052573639 2.9174144929
H -0.2365367501 2.4703017947 3.0466163933
H -1.3834625434 3.5384943651 2.2224391802
H -1.7176356615 1.8301832705 0.4473723748
H 0.0446476473 3.5426479775 0.1158567808
H 0.5296374785 2.0189904102 -0.6455862541
H 1.2366315111 2.4905702008 0.9038116845
H -1.2727739739 -0.1414470400 1.9263334087
H 0.4386769657 0.2830645886 1.9618326830
H -4.8028863648 1.6027193694 -1.9375413893
H -5.2320668281 0.0757531886 -1.0925899364
H -4.6407528342 1.4767592133 -0.1515780363
H -1.8573229982 -2.7912987162 -3.4902768310
H 5.0237925152 0.4767421505 1.0559551905
H 3.7518450591 1.0493260224 2.1472282441
H 4.3331602241 -0.9881277801 3.2857313810
H 4.7949170147 -1.8121938695 1.7697349061
