48
CONF108
C 0.5953059466 0.9013834896 3.2029169599
O -0.4807613021 0.1572564446 2.5991988708
N -0.9056942524 0.8175965541 1.4689123908
C -1.8227896580 0.1711136230 0.8257826714
C -2.3468532169 -1.1591172727 1.2152459366
C -3.6803367006 -1.3251585250 1.5971579439
C -4.1571413834 -2.5669501028 2.0023075288
C -3.3053031056 -3.6681527078 2.0214051880
C -1.9755734008 -3.5280115294 1.6351140171
C -1.5158831899 -2.2830090904 1.2391734542
O -0.1526037569 -2.1679084997 0.9501516430
C 0.2165287107 -1.7154134142 -0.2664693618
C 1.4909709389 -1.1605039080 -0.3722288943
C 1.8785946233 -0.6894845927 -1.6211986034
N 1.0784332755 -0.8127466246 -2.6788836257
C -0.1063861923 -1.3814424183 -2.4738739751
N -0.5867346345 -1.8356704298 -1.3145394231
O 3.0825254810 -0.1218849245 -1.8913477013
C 3.8043086327 0.5110935612 -0.8838268326
C 5.0537463720 0.0059646113 -0.5541089862
C 5.8300152623 0.6582231739 0.3969950602
C 5.3542043945 1.8127086579 1.0140896011
C 4.1082237341 2.3294321716 0.6727829743
C 3.3382659264 1.6824813148 -0.2871914139
Cl 1.7849912357 2.3400702919 -0.7495886687
F 2.2801914233 -1.0892333734 0.7132821969
C -2.3434109207 0.8390606550 -0.3767333144
N -3.2412639767 0.2042664706 -1.0599346261
O -3.7676041745 0.8317059441 -2.1895949756
C -3.5378854915 2.2547112769 -2.2579785611
C -2.0869786847 2.5315517053 -1.9730859482
O -1.7905798539 2.0412751740 -0.6433482627
H 0.2565068779 1.9031342998 3.4844371536
H 0.8719694291 0.3310542337 4.0909259593
H 1.4451617622 0.9660964641 2.5155318875
H -4.3394404005 -0.4637723271 1.5830667152
H -5.1940508997 -2.6729350797 2.3027301638
H -3.6727020981 -4.6403196637 2.3329214087
H -1.2922295437 -4.3702113512 1.6353034184
H -0.7542832335 -1.4855867074 -3.3421241926
H 5.3944644562 -0.9003410093 -1.0433501106
H 6.8043739860 0.2597439738 0.6579743677
H 5.9538614414 2.3220657334 1.7606899325
H 3.7334761593 3.2343894490 1.1378953539
H -4.1792556198 2.7617582947 -1.5254003461
H -3.8183839391 2.5496664284 -3.2713329678
H -1.4361656683 2.0200925354 -2.6913456639
H -1.8658238715 3.5999562207 -1.9597803427
