26
CONF16
C -3.3539599283 0.4419831624 0.7518857838
C -2.7604976555 -0.2817979604 -0.4473797211
C -1.3831622430 0.1692476840 -0.9652522878
C -0.2068109371 0.1042821982 0.0265363987
C 1.1219591114 0.4579688339 -0.6721339599
C 2.2397373575 0.7499862526 0.3184514304
O 2.4489620570 -0.3659911896 1.1906401191
O 1.5150189306 -0.6161699925 -1.5493675636
O -0.3557850135 1.0353574826 1.0899043335
O -1.1627625781 -0.6987382622 -2.0852242045
O -2.7379369963 -1.6668748672 -0.0987125114
O -2.7150729777 0.0701161555 1.9840383742
H -3.2418823917 1.5249922034 0.6453329795
H -4.4238859643 0.2032711373 0.8128006026
H -3.4486540623 -0.1192268084 -1.2953026016
H -1.4743004385 1.2180612130 -1.2997104373
H -0.1256042052 -0.9295898074 0.4072416786
H 0.9791042002 1.3362036897 -1.3158895879
H 2.0235953992 1.6655123850 0.8785899138
H 3.1708641975 0.8846064211 -0.2417214406
H 1.8621518048 -1.3139249660 -0.9738392738
H -0.2021380005 -0.8318849759 -2.1809614629
H 1.7559550829 -0.3216368788 1.8610945161
H -2.6723377201 -0.8976672500 1.9695339127
H -1.1299226548 0.7470536930 1.6161873498
H -2.2467957802 -2.1012890228 -0.8117287717
