43
CONF4
C 1.0096350117 2.7508387757 2.0523567251
C 0.4375322290 1.3942702608 1.6409031157
C -0.8410793062 1.0852512292 2.4170737766
C 0.2046900189 1.3961833550 0.1093669214
C -0.1857739337 0.0565582804 -0.4477160830
C 0.8110840622 -0.8704917980 -0.8172138232
C 0.4158386689 -2.1149868251 -1.3143410039
N -0.8544542152 -2.4575701955 -1.4937046290
C -1.8018340842 -1.5924251804 -1.1513155584
C -1.5257176763 -0.3325745198 -0.6070297241
C -2.6455144470 0.6123668250 -0.2805943651
O -2.7766881353 1.7094638837 -0.7706748673
O -3.4757232565 0.0685717330 0.6206098674
C -4.6498502352 0.8563708259 0.9212652713
C -3.1951656676 -2.1016319113 -1.4640088508
F -4.0055161748 -1.0823122977 -1.9009804353
F -3.7786208546 -2.6436571257 -0.3499417973
C 1.3913428834 -3.2011917043 -1.7570201058
F 1.5654937635 -3.1610467612 -3.0982316654
F 2.6070913610 -3.0738242399 -1.1854684412
F 0.9289697498 -4.4223218125 -1.4436281778
C 2.2362270498 -0.4651765679 -0.7423208159
N 2.9126391580 -0.4124396707 0.3285789811
C 4.2448492701 0.1476314486 0.1041055770
C 4.6279228546 0.0192910727 -1.3823988055
S 3.0205381904 0.0539696459 -2.2769399454
H 1.9482857842 2.9632130060 1.5295919867
H 0.3040546099 3.5575208485 1.8205945481
H 1.2085356998 2.7772362716 3.1282560882
H 1.1800886207 0.6191849922 1.8627541494
H -1.6196679647 1.8261873913 2.1968027589
H -0.6476636785 1.1143021525 3.4939798803
H -1.2375495253 0.0936162406 2.1807223563
H 1.1315534255 1.7148720699 -0.3785260906
H -0.5615667719 2.1356561180 -0.1356946603
H -5.2111274056 0.2694037028 1.6467935584
H -4.3594180450 1.8232680876 1.3399843797
H -5.2330597747 1.0131363484 0.0105599339
H -3.1528054861 -2.8733632648 -2.2400635232
H 4.2157630001 1.2037989466 0.4117783735
H 4.9755194922 -0.3608384202 0.7412583244
H 5.1178419087 -0.9354664924 -1.5957929766
H 5.2632998206 0.8391547942 -1.7237299213
