50
CONF33
C 3.8431137231 -3.3102780261 -1.6590984566
C 2.4141577477 -2.8883062836 -1.4955640695
O 1.5216693634 -3.0956020879 -2.2914261657
O 2.2397437015 -2.2460724527 -0.3154835756
C 0.9088297899 -1.7836286277 0.0365619313
C -0.1198710747 -2.8891098290 0.0876667257
C -1.3939123702 -2.5748348774 0.3456175744
C -1.6835407827 -1.1230508526 0.5682433656
C -3.1317815770 -0.6313572546 0.7064227176
C -3.1547158828 0.8815957574 1.1462127650
C -1.9084838048 1.6719718184 0.8031521012
C -0.9470462618 1.0811905204 0.0039616313
C -1.0404518236 -0.2896663801 -0.5664254970
C 0.4388452113 -0.6275088972 -0.8534144088
O 1.2189661871 0.6029125047 -0.5991412836
C 0.3655389694 1.5170328252 -0.0511927922
C 0.7038152492 2.7281748737 0.5300527376
C -0.2842713040 3.4298566720 1.2216265685
C -1.5652198794 2.9012606091 1.3888044100
O 2.0033211188 3.2387578489 0.4441947325
C 2.9477203698 2.6615150764 1.2574604388
O 2.6886673302 1.7827367351 2.0442135580
C 4.2846020472 3.2901606968 1.0287894992
C -1.8658120323 -0.4136657313 -1.8586941389
C -3.3408169026 -0.1150444126 -1.6476970377
N -3.8597677354 -0.9174589923 -0.5387318850
C -5.3049214250 -0.7587139318 -0.4001515520
H 3.9983264428 -3.6997089954 -2.6643735491
H 4.5126948874 -2.4682746707 -1.4665166964
H 4.0722920082 -4.0884498968 -0.9238457379
H 1.0596740704 -1.3764388375 1.0462210011
H 0.2190679697 -3.9097827050 -0.0531431433
H -1.1688603804 -0.8343873150 1.4988438168
H -3.6232190048 -1.2097476937 1.4976786524
H -3.2782290550 0.9261598841 2.2345175862
H -4.0486412396 1.3616776109 0.7308794299
H 0.6009725139 -0.8759848527 -1.9023913964
H -0.0139737177 4.3741656093 1.6842517672
H -2.2785588737 3.4278037634 2.0160458896
H 4.2468439126 4.3370815626 1.3463944293
H 5.0430935906 2.7587216895 1.6015457870
H -1.4492329462 0.2621673414 -2.6141343030
H -1.7533613271 -1.4397420274 -2.2304079685
H -3.4911226440 0.9693513338 -1.4775861933
H -3.9002502762 -0.3720092140 -2.5547020399
H -5.6648265021 -1.3652961309 0.4376458867
H -5.6240032167 0.2864928083 -0.2321487939
H -5.7947764799 -1.1089413696 -1.3152883769
H 4.5298554162 3.2780845643 -0.0362877847
H -2.1724806795 -3.3293700090 0.4148607089
