54
CONF278
C -5.8953740302 1.5996071057 -1.8510198822
C -4.9761963328 0.6084183953 -1.1483467023
C -4.7686875370 0.9128860264 0.3827314108
N -3.4611093769 0.3721571865 0.7105790366
C -2.5825457657 -0.0681649157 -0.3903234841
S -3.2557162932 0.7418237831 -1.8860519117
C -1.3822997291 0.5636556385 0.3778866435
C -2.4287628754 0.9170658207 1.4604712847
O -2.4081058185 1.4523083725 2.5442471524
N -0.2661224553 -0.2526421361 0.7352582138
C 1.0077610029 0.0640439742 0.3912662874
O 1.3113421628 1.0427243467 -0.2842874782
C 2.0672106506 -0.8891964935 0.9712390625
C 2.3073402322 -0.5861796529 2.4338850123
C 2.2268827832 -1.6115766416 3.3768507341
C 2.4383881434 -1.3427313398 4.7275159535
C 2.7277996017 -0.0461242242 5.1440124973
C 2.8054141861 0.9816467401 4.2049523211
C 2.5957297160 0.7143788664 2.8560851357
C 3.3185574080 -0.7491897566 0.1192860315
O 4.3357443533 -0.1811463289 0.4242299354
O 3.1170637951 -1.3716154414 -1.0733073822
C 4.1400624148 -1.2578664547 -2.0337484023
C 4.1864957558 -0.1267801057 -2.8346348993
C 5.1646260029 -0.0525481669 -3.8232206857
C 6.0710240484 -1.0975489423 -3.9952306281
C 6.0018984950 -2.2231899487 -3.1769979173
C 5.0290869077 -2.3105844290 -2.1830866802
C -4.8206358122 2.4113679011 0.6637209051
O -3.8945439522 3.1760511970 0.5157174855
O -6.0486561716 2.7758491329 1.0646343676
C -5.5104609359 -0.8168334393 -1.2991810085
H -5.5137699533 2.6233457575 -1.8052956103
H -6.8878449332 1.5690142357 -1.3904298828
H -6.0018860971 1.3161934148 -2.9015903656
H -5.5729080540 0.4188506362 0.9380296541
H -2.5252066172 -1.1548912482 -0.5017554583
H -1.0260837488 1.4769193153 -0.1075259383
H -0.4311151030 -1.0752578696 1.2992000669
H 1.7072242574 -1.9181994771 0.8644530096
H 1.9991628544 -2.6233236185 3.0530625562
H 2.3747562255 -2.1477875607 5.4529144952
H 2.8909232904 0.1645519751 6.1962915683
H 3.0286614711 1.9948597216 4.5243194821
H 2.6562592795 1.5175811064 2.1280434600
H 3.4698524588 0.6739171021 -2.6843120091
H 5.2154906836 0.8244577686 -4.4604783556
H 6.8300303111 -1.0350888797 -4.7681543802
H 6.7054500369 -3.0387954693 -3.3095050689
H 4.9563440874 -3.1771987452 -1.5344151082
H -6.0643977086 3.7432373155 1.1747251684
H -6.5163151543 -0.8719898531 -0.8679970709
H -4.8790136528 -1.5491393818 -0.7887474771
H -5.5688251851 -1.0813233156 -2.3576806718
