45
CONF17
C 4.6589447938 -0.6327958056 0.9837957521
C 3.7270060544 -1.8443284624 1.0514674594
C 2.2794744775 -1.5173304008 0.6732862687
C 2.1046478452 -1.2300539885 -0.8213393079
N 0.7635036803 -0.7623030801 -1.1669743785
C 0.3063161972 0.4691070673 -0.7841487901
C -1.0806556646 0.7476561794 -0.8037693115
C -1.5576294061 2.0217305598 -0.5174473792
C -0.7059733214 3.0645056984 -0.1766971649
C 0.6612511592 2.7868845912 -0.1081267745
C 1.1571041761 1.5176682656 -0.4009006144
C 1.6442816127 3.8273223064 0.2856893436
O 2.8392508149 3.6327213626 0.4035397679
O 1.0733741925 5.0294296745 0.5063002426
S -3.3356972958 2.3208948415 -0.5435060756
O -3.9797142059 1.3450058307 0.3470562350
O -3.5322651220 3.7606861502 -0.3267353451
N -3.8980392762 1.9939874610 -2.0910109253
O -1.9639822406 -0.2308724511 -1.2065201675
C -2.2162258525 -1.2903647405 -0.3341965684
C -2.8899835141 -2.3756115393 -0.8846571998
C -3.1867568520 -3.4648060104 -0.0724530167
C -2.8079989373 -3.4706179441 1.2693109890
C -2.1339480238 -2.3731654815 1.7983801422
C -1.8353311734 -1.2694346332 1.0023768269
H 4.2897993334 0.1733622378 1.6279022706
H 5.6679823889 -0.8948176945 1.3167973645
H 4.7420964672 -0.2350407947 -0.0326651515
H 3.7396419394 -2.2490753353 2.0700393851
H 4.1034568006 -2.6427036830 0.3976469356
H 1.9402979018 -0.6479969471 1.2526059534
H 1.6204733843 -2.3526032155 0.9410045248
H 2.2860504386 -2.1428021616 -1.3983930830
H 2.8355975435 -0.4932216168 -1.1697863030
H 0.0643863620 -1.4865529714 -1.2393912849
H -1.1019224867 4.0460114959 0.0437305474
H 2.2268698385 1.3612717148 -0.3407028258
H 1.7760824250 5.6483198769 0.7659575199
H -3.4598956311 2.6097652327 -2.7741145870
H -3.7355820428 1.0177907993 -2.3339353612
H -3.1726006777 -2.3551669862 -1.9319919580
H -3.7143516694 -4.3142360908 -0.4945497536
H -3.0385948844 -4.3241631428 1.8978222398
H -1.8389596870 -2.3655689466 2.8428958499
H -1.3217815712 -0.4084870211 1.4172687090
