29
CONF321
C -2.2702863671 1.0184045780 -0.5914424109
N -1.9011022206 -0.2662312698 0.0201156029
C -2.2584551951 -1.5097665981 -0.6775938753
C -1.4880602237 -1.7494921440 -1.9642374447
O -1.9558781051 -0.8310560189 -2.9564838699
S -1.2982485782 -0.3241359617 1.5540544553
O -1.4995549005 0.9665951155 2.2095375156
O -1.6587357548 -1.6039133333 2.1648604657
C 0.6064069639 -0.5118047769 1.3717072524
C 1.3467166425 0.7908824444 0.9523382057
C 2.7955126857 0.5440190234 0.4108037807
C 3.6935931753 1.8225697538 0.3689240845
F 4.0362409803 2.2100195833 1.6006530810
F 4.8109357084 1.5414885978 -0.3169717800
F 3.0500284268 2.8251139813 -0.2465829376
F 2.7130966958 0.0621003018 -0.8505279305
F 3.4189264932 -0.3677046838 1.1919374615
F 1.4138787781 1.6145324773 2.0180698626
F 0.6367977802 1.3991046746 -0.0325285414
F 0.8285314636 -1.4771647548 0.4428660905
F 1.0773062584 -0.9325526604 2.5568032875
H -1.6502522985 1.2241308386 -1.4662061698
H -3.3176151378 0.9636266593 -0.9081802547
H -2.1626588652 1.8183953772 0.1405667268
H -3.3329667455 -1.4791116826 -0.9073543274
H -2.0880630166 -2.3475001169 0.0021768916
H -0.4105151369 -1.6301631341 -1.7858943725
H -1.6771205747 -2.7888184235 -2.2762001210
H -1.4584598367 -0.9815678635 -3.7669109149
