30
CONF2
O -1.9557453993 0.1550964885 -2.6090191889
C -3.1294588105 0.4406680654 -1.9673136084
O -4.2060434092 0.2315975039 -2.4647890815
C -2.8749034486 0.9968215712 -0.5859913026
C -2.4437503118 -0.0990057759 0.3635923779
C -1.0879956719 -0.4325344788 0.5289071470
N -0.1164438796 0.2484778203 -0.2390604163
C 1.2358397563 0.2356144958 0.0813689496
C 2.2103280352 -0.2213525899 -0.8258045320
Cl 1.6881634934 -0.8472741643 -2.3809779418
C 3.5685024851 -0.1949865096 -0.5459122012
C 3.9989137373 0.2781621682 0.6870079613
C 3.0758046122 0.7497774926 1.6123881369
C 1.7237460574 0.7476501740 1.3002795655
Cl 0.6061743445 1.4489261722 2.4447125207
C -0.7283341480 -1.4272476258 1.4418392227
C -1.6979866474 -2.0888430208 2.1812584127
C -3.0439237763 -1.7809658467 2.0075350056
C -3.4039346029 -0.7940006017 1.0982252018
H -2.1851771571 -0.2520631967 -3.4590677081
H -2.0995358511 1.7688819133 -0.6397300144
H -3.8094224605 1.4424497706 -0.2430760773
H -0.3069425083 0.2269492182 -1.2334148084
H 4.2735854565 -0.5586663923 -1.2835606912
H 3.3972547980 1.1482550812 2.5672114621
H 0.3194260827 -1.6828108538 1.5624574414
H -1.3994712121 -2.8581317046 2.8860312710
H -3.8062010518 -2.2996618962 2.5784788827
H -4.4508471521 -0.5394223006 0.9597707898
H 5.0569530748 0.2907262736 0.9227319016
