39
CONF5
C -5.0943523815 3.0972690352 -0.1080259573
N -3.8932040585 2.2865922201 -0.2432611395
C -3.8072267515 0.9410642588 -0.2234741218
C -2.4697481860 0.6064738846 -0.3724933900
C -1.8244842447 1.8686910543 -0.4805243257
N -2.6976578709 2.8746327542 -0.4023705493
C -0.4094476342 2.2460468294 -0.7134572312
F 0.4144699835 1.7026083014 0.2594823449
F 0.0371770703 1.7387680436 -1.9141913281
C -2.0684706981 -0.8227834584 -0.3873619418
O -2.9383603599 -1.6868442597 -0.4370227487
N -0.7232775438 -1.0869973572 -0.3218889259
C -0.0965856254 -2.3425616500 -0.2064979189
C 1.3134005816 -2.3657382848 -0.1292949231
C 1.9740334175 -3.5774073164 0.0695569628
C 1.2411591387 -4.7459250138 0.1613048182
C -0.1371024713 -4.7497669794 0.0610038714
C -0.8082941842 -3.5468348144 -0.1193767769
F 1.8958160733 -5.9152909735 0.3439072511
C 2.1249929380 -1.1296329005 -0.2612615972
C 2.8257258073 -0.6311545910 0.8373322953
C 3.6111222986 0.5100516206 0.7152885245
C 3.7076599952 1.1618261398 -0.5165226783
C 3.0162090942 0.6636214982 -1.6158127650
C 2.2279355722 -0.4700067273 -1.4887390458
Cl 4.6729783768 2.5976882993 -0.7024298455
Cl 4.4564571714 1.1038464950 2.1157506471
H -5.5517576111 2.9383821111 0.8728113760
H -5.8123638961 2.8403938261 -0.8918126785
H -4.8017959759 4.1420260055 -0.2089255816
H -4.6642645151 0.2948340671 -0.1071307988
H -0.2684635347 3.3309936973 -0.7156100302
H 2.7540506278 -1.1268511253 1.7989158332
H 3.0563157508 -3.6067933163 0.1296977154
H -0.6828156588 -5.6838741986 0.1294201692
H 3.0951638113 1.1773130994 -2.5666294179
H 1.6880463263 -0.8494691825 -2.3499650373
H -1.8854530602 -3.5305658512 -0.1835958104
H -0.1004741138 -0.2942391980 -0.2445288969
