47
CONF7
C -7.3880622188 -1.5107314937 0.8540236240
O -6.4499839765 -0.9670731251 -0.1010347313
P -4.8741743360 -1.1018936214 0.1709165927
S -4.2204213909 -2.8068336205 0.8001932106
O -4.2749972494 -0.5343301457 -1.2044471762
C -4.0723530856 -1.4282462286 -2.3225895928
O -4.6447605599 0.1782892388 1.1423636470
C -3.3996713762 0.4006052387 1.7378368765
C -3.1914116164 -0.0248274444 3.0403736511
C -1.9654293065 0.2262781942 3.6461812983
C -0.9682953410 0.9151083953 2.9533946040
C -1.2023671723 1.3513341384 1.6465031358
C -2.4170175062 1.0829304954 1.0309420451
S 0.5580864389 1.2787409828 3.8099332783
C 1.7735789180 1.0384694499 2.5222706306
C 1.7598873731 -0.0988690648 1.7103861008
C 2.7352653198 -0.2773465720 0.7405306239
C 3.7357335190 0.6789376528 0.6006891258
C 3.7762711337 1.8026074729 1.4112039688
C 2.7862214037 1.9859768290 2.3703449204
O 4.7630367433 0.5200214775 -0.3266675078
P 4.4809699940 0.2990953319 -1.9100228947
S 3.0282017906 1.3049502655 -2.6870220419
O 4.4013330973 -1.3030941923 -1.9693472658
C 4.0611678789 -1.9458948988 -3.2195938900
O 5.9538558298 0.5438689435 -2.4994384343
C 6.4026429147 1.8924690745 -2.7604464578
H -8.3740332821 -1.3888627593 0.4044881912
H -7.3363886901 -0.9530374556 1.7945811953
H -7.1775251746 -2.5692870894 1.0327942505
H -5.0364579368 -1.7654332292 -2.7155172524
H -3.5456940327 -0.8435583322 -3.0774685562
H -3.4694950783 -2.2878004818 -2.0161384168
H -3.9716544417 -0.5711995176 3.5574306073
H -1.7776019931 -0.1269870947 4.6546460534
H -0.4331247900 1.8946999241 1.1084916398
H -2.6146806637 1.4074875754 0.0156689746
H 0.9800322599 -0.8426729031 1.8339187773
H 2.7319389709 -1.1564945273 0.1061619236
H 4.5645017838 2.5338549807 1.2722126259
H 2.7910191451 2.8758113608 2.9908185741
H 3.9811361071 -3.0096195675 -2.9938012061
H 3.1080274490 -1.5627137536 -3.5960517361
H 4.8519283404 -1.7792917203 -3.9574617850
H 5.6940322124 2.4090655705 -3.4144674642
H 6.5150420196 2.4416510105 -1.8201914701
H 7.3716894434 1.7938454474 -3.2505462606
