48
CONF3
C -2.9865828709 -1.2941336124 -2.6702107400
C -2.8538007680 -0.6004738853 -1.3236199314
C -2.3225773387 0.8325477467 -1.5041515358
N -2.2274889301 1.5594656526 -0.2336039781
C -3.5407600674 1.5993616947 0.4406218573
C -4.0712907706 0.1721551771 0.6301585404
N -4.1451781166 -0.6027800393 -0.6144174026
C -1.0665800659 1.4898909299 0.5003385543
C -0.8169390118 2.3834546879 1.5822639283
C 0.3328267699 2.3737916623 2.3153620993
C 1.3705138426 1.4786422212 1.9972306817
C 1.1787226602 0.6208081689 0.8946223846
C -0.0167928844 0.6174426223 0.1792953811
N 2.2056665582 -0.2666793320 0.5515289002
C 3.3492408432 -0.3137230378 1.2648705592
C 3.5864747973 0.4941984347 2.3471974869
C 2.5930149813 1.4530291247 2.7683071920
O 2.7768127065 2.2206978353 3.7549476520
C 4.8839878146 0.3557548320 3.0535531871
O 5.7457147384 -0.4455201329 2.7272805167
O 5.0523004874 1.1819034172 4.0884940026
C 2.0549084895 -1.1403401707 -0.5747686472
C 2.1954423711 -0.6354291751 -1.8651028548
C 2.0482497444 -1.4335457309 -2.9846009577
C 1.7578245800 -2.7715733371 -2.7654190546
C 1.6124448186 -3.3231097836 -1.5023500783
C 1.7591109279 -2.4879094293 -0.4012024084
F 1.6124145325 -3.5703879953 -3.8417790280
F 2.4748809476 0.6694521578 -2.0240889258
F -1.7395255273 3.3366566972 1.8604798370
H -2.0180809359 -1.3361732183 -3.1784198329
H -3.3574218186 -2.3149056044 -2.5422359701
H -3.6866285245 -0.7502092689 -3.3156585109
H -2.1470119483 -1.1605804922 -0.6934707191
H -1.3532559198 0.8463190815 -2.0120145123
H -3.0331450703 1.3846488137 -2.1360432092
H -4.2269510390 2.1743235980 -0.1948176549
H -3.4656701439 2.0992062894 1.4052602107
H -3.4109783813 -0.3601058086 1.3294151778
H -5.0683011064 0.2181102922 1.0834457415
H -4.8397271726 -0.1710784767 -1.2226614416
H 0.4664378165 3.0848829059 3.1228701676
H -0.1448346722 -0.0993865126 -0.6184900059
H 4.0906578025 -1.0317104993 0.9309820614
H 4.2039921504 1.7443039015 4.1573151372
H 2.1607618202 -1.0287298549 -3.9834127806
H 1.3853065565 -4.3763192272 -1.3882490628
H 1.6418130099 -2.8762434995 0.6049471871
