45
CONF1
C 2.5771472649 1.9950366456 -3.6332917417
C 2.7828911190 1.4160844423 -2.2422443969
C 1.4510268675 1.3915425667 -1.4882136470
O 1.0441039657 2.3864586619 -0.8918359448
N 0.7465139623 0.2385949855 -1.5737476194
C -0.5065960859 0.0686094889 -0.9084897037
C -0.6016526387 0.1542884083 0.6551914382
N -1.5899849726 1.2251702491 0.4904210796
C -1.5411452582 1.2218573026 -0.8978650405
O -2.1526773879 1.8505207277 -1.7287274286
C -2.7406121675 1.2272200609 1.3608053210
C -3.1088806422 -0.2849621614 1.5985099498
S -1.4497515617 -1.1661244633 1.6183235550
C -3.8175386013 -0.5477222187 2.9232644459
C -3.9603199856 -0.7787066776 0.4287008447
C -2.4178144482 1.9590536353 2.6546289622
O -1.3208361483 2.0047079105 3.1631640098
O -3.5159512404 2.5374777819 3.1708308973
O 3.3392274041 0.1046426686 -2.4138998922
C 3.8488463371 -0.5346447468 -1.3076794407
C 3.8181287690 -0.0180638530 -0.0109850757
C 4.3628933278 -0.7692389799 1.0316858387
C 4.9287927885 -2.0172068002 0.7965874441
C 4.9500808536 -2.5221031177 -0.5043930691
C 4.4133649549 -1.7892887511 -1.5541951970
H 2.1342062982 2.9906337662 -3.5528455831
H 3.5393099952 2.0755204761 -4.1447973124
H 1.9103754873 1.3547712631 -4.2178257069
H 3.4703394383 2.0484740792 -1.6675447077
H -0.9899607029 -0.8417017401 -1.2735976531
H 0.3225505344 0.4501528268 1.1574688938
H -3.5787668401 1.7248494092 0.8627101389
H -4.0253461809 -1.6163316728 3.0267185519
H -4.7732856336 -0.0141276259 2.9380075760
H -3.2188837538 -0.2294923385 3.7808124975
H -4.9348148816 -0.2771036521 0.4478861476
H -3.4874223437 -0.5788771464 -0.5366204645
H -4.1203525370 -1.8566727213 0.5121505752
H -3.2747760570 2.9577203427 4.0151834827
H 3.3806418525 0.9490809985 0.2074616244
H 4.3358487392 -0.3639897570 2.0385020942
H 5.3480089610 -2.5923279378 1.6153017172
H 5.3882895733 -3.4950212038 -0.7046870272
H 4.4243669936 -2.1707202680 -2.5701617617
H 1.1482059241 -0.5419062018 -2.0735580586
