67
CONF6
C 6.5079488417 -2.1063552371 2.4159185034
C 5.2523922679 -2.0868933015 1.5983932636
O 5.1701760011 -2.3051986456 0.4141147427
O 4.1757959404 -1.7818603932 2.3802621465
C 2.9619490134 -1.5688914374 1.6665319926
C 2.9567629337 -0.2000303750 0.9997196348
O 3.9270749344 0.5233427614 1.0277743017
C 1.6474686957 0.2159244373 0.3234521059
C 1.8732187741 1.1451541455 -0.9125373549
C 1.0668979255 2.4154539856 -0.6590389697
C -0.0347214104 2.0101584253 0.3393316192
C 0.6992026771 1.0236279674 1.2860188188
C -0.2858505058 0.1793781750 2.0999340731
C -1.4850996926 -0.3922737769 1.3535955401
C -2.2329063096 0.6777418442 0.5531247836
C -1.2897569020 1.4558451755 -0.3698365749
C -2.0152977522 2.6337575118 -1.0506535860
C -3.4428132849 2.3209355913 -1.5102782942
C -3.6288588652 0.8394458016 -1.5571078192
C -3.7714483320 0.2323072420 -2.7465847000
C -3.7156615325 -1.2254850875 -2.9101073437
O -3.8362522172 -1.7607093319 -4.0090311634
C -3.4859045410 -1.9900622492 -1.6812160255
C -3.3478672630 -1.3936386419 -0.4906274584
C -3.4762545981 0.0882936580 -0.2556106431
C -4.7921453663 0.2282059337 0.5730490584
F -4.3591361755 2.9146965037 -0.6134324918
F -2.7199974178 1.6026683779 1.5203643062
O -2.3517093689 -1.0410389320 2.2893698308
C 1.5439897839 1.8346524369 2.2880219448
O 1.2984887695 0.4098915874 -2.0018326459
C 1.3029898217 -0.9652490610 -1.6317358024
O 0.9912102799 -0.9353247438 -0.2152706106
C 0.1866929204 -1.6809548092 -2.3558888322
C 2.6641649165 -1.6019949199 -1.8857430137
H 7.2952046697 -2.6156329275 1.8617447501
H 6.3390550113 -2.5835612203 3.3833902876
H 6.8096804701 -1.0707409310 2.6033300564
H 2.7942393993 -2.3433515553 0.9122478689
H 2.1519338262 -1.6270860863 2.4002664398
H 2.9362390524 1.3380275532 -1.0920982251
H 0.6932797145 2.8217606123 -1.6014272152
H 1.7170149418 3.1747646672 -0.2152767130
H -0.3615252483 2.8720225793 0.9340948984
H -0.6757723886 0.8262565917 2.8975412019
H 0.2204196858 -0.6511318685 2.6033863049
H -1.1528891945 -1.1635839015 0.6560563698
H -0.9746716370 0.7455446147 -1.1429434082
H -2.0750260297 3.4865505551 -0.3658270103
H -1.4334101143 2.9522526897 -1.9193013815
H -3.6551549094 2.7648296814 -2.4881740687
H -3.8892829005 0.8102997624 -3.6598902370
H -3.4506891271 -3.0709328174 -1.7808337729
H -3.2398267816 -1.9945200551 0.4069285857
H -4.9686282374 1.2627114865 0.8571024400
H -4.7273511882 -0.3932290586 1.4682052958
H -5.6250104298 -0.1235090231 -0.0410308909
H -2.6838384707 -0.3570317269 2.8855879412
H 2.3455559002 2.3997847175 1.8088161243
H 0.8909392485 2.5322178020 2.8199912875
H 2.0102939648 1.1791391266 3.0311858100
H -0.7719875165 -1.1981826262 -2.1614095023
H 0.1326532736 -2.7202801351 -2.0229310641
H 0.3779524565 -1.6674915052 -3.4312040737
H 3.4708383587 -1.0948735669 -1.3506467875
H 2.8845152759 -1.5568549665 -2.9554532928
H 2.6605056710 -2.6496892823 -1.5738709483
