55
CONF2
C 2.0987451233 -1.9526732917 -3.8988066225
C 1.4564944065 -1.8954923637 -2.5138278378
C 1.9603963359 -3.0480227002 -1.6340906303
N 1.7874547823 -0.6145536118 -1.8983198453
C 1.0297629866 -0.1297096724 -0.9566545155
C -0.1633220031 -0.7120063263 -0.4207720938
C -0.8666484001 -0.1128779275 0.5923690598
C -0.4092385375 1.1452348308 1.1833906209
N -1.0349415740 1.7347447392 2.1859687714
C -2.1660301688 1.1535413232 2.6918054602
C -2.8360819817 1.7766578974 3.7615306861
C -3.9856146308 1.2267343556 4.2968843064
C -4.4963802934 0.0322740905 3.7711978759
C -3.8615657605 -0.6090023091 2.7188215183
C -2.6951294205 -0.0576143225 2.1731835907
N -2.0177061789 -0.6589435762 1.1233041669
C -2.5050819273 -1.8972210970 0.5813014149
C -3.3971325474 -1.8716626379 -0.4844171212
C -3.8601607170 -3.0682212811 -1.0208409286
C -3.4104736764 -4.2646884674 -0.4735924088
C -2.5161723972 -4.3002792208 0.5906792542
C -2.0595493170 -3.0985750595 1.1205717377
Cl -3.9913380530 -5.7799452833 -1.1476692526
C 0.7643290513 1.7436458593 0.6542302749
C 1.4656894545 1.1727755971 -0.3768901061
N 2.6026460513 1.6692823861 -0.9339216918
C 3.2262730596 2.9056563665 -0.7552185239
C 4.6189791687 2.9673852543 -0.9089494354
C 5.2942576941 4.1735524403 -0.7888267180
C 4.5710880041 5.3264286880 -0.5046060700
C 3.1895049137 5.2949621169 -0.3635795063
C 2.5169406782 4.0859438841 -0.4955177505
Cl 5.4225539986 6.8586397240 -0.3307488099
H 1.8604234610 -2.9001411368 -4.3925683511
H 3.1877141105 -1.8689958525 -3.8134572175
H 1.7382743962 -1.1334055439 -4.5283920088
H 0.3663462888 -2.0031932720 -2.6391517922
H 1.7217073053 -4.0105113561 -2.0978733173
H 1.5035749122 -3.0186806222 -0.6400738292
H 3.0474057815 -2.9788497857 -1.5171274629
H -0.5079087365 -1.6541782881 -0.8240823567
H -2.4195376702 2.7015258399 4.1482669711
H -4.4920065255 1.7180468521 5.1209678491
H -5.3991626373 -0.4023259621 4.1877697899
H -4.2654816165 -1.5325301659 2.3202586363
H -3.7279682935 -0.9222747050 -0.8927254166
H -4.5579845170 -3.0669931921 -1.8500351167
H -2.1805362960 -5.2460174459 0.9999133490
H -1.3587012840 -3.0943693521 1.9490040181
H 1.0938389304 2.6591840433 1.1281455381
H 3.0408611449 1.0030642033 -1.5674172625
H 5.1748842901 2.0595060806 -1.1225140612
H 6.3713760248 4.2109926124 -0.9058895272
H 2.6343290888 6.2055307521 -0.1684824597
H 1.4360044165 4.0786448919 -0.4325248312
