27
CONF358
C 3.1133574492 -0.1265016992 -0.1123810819
C 3.8183531748 0.0285276796 1.2351259059
C 5.3120367483 -0.2223834094 1.1550991994
O 5.5260361421 -1.5939271997 0.7763986190
C 1.6168564075 0.1663779570 0.0224296937
C 0.8781012122 -0.0094366088 -1.2779403146
C -0.6264723931 0.4084406276 -1.2779873296
C -1.5187937393 -0.2593859414 -0.1858623637
C -3.0569203283 -0.1317869196 -0.4363312836
F -3.7106894046 -0.5113767372 0.6711434263
F -3.4439005449 -0.9174616013 -1.4476117002
F -3.3855923612 1.1372682877 -0.7166080455
F -1.2509228371 0.3236638998 1.0073271919
F -1.2327686366 -1.5797612411 -0.0985778866
F -1.1547416905 0.1159394890 -2.4965382072
F -0.6907431570 1.7532324218 -1.1010853749
F 0.9386963991 -1.3078683440 -1.7163118425
F 1.4462032137 0.7558611650 -2.2711623957
H 3.5622307918 0.5612169240 -0.8378204644
H 3.2574665643 -1.1433546819 -0.4900461877
H 3.6664140459 1.0464652461 1.6157219482
H 3.3770552903 -0.6575926359 1.9699589045
H 5.7744364396 -0.0201099390 2.1318250710
H 5.7669440499 0.4526935056 0.4143186087
H 6.4777584924 -1.7331480982 0.7042546091
H 1.4534274125 1.1932390953 0.3684097815
H 1.1678514890 -0.5075946859 0.7598594796
