56
CONF2
C -2.3285503306 -1.3769465550 -0.7030837670
C -2.4600987593 0.0746444797 -0.1754403398
C -3.1638768096 0.9391984031 -1.2417162928
C -4.6123095291 0.5136366091 -1.4719685634
C -5.4028855897 0.4126163688 -0.1887235970
O -6.6337480862 0.5033711799 -0.1857063787
C -4.6573046971 0.1678197123 1.0352312748
C -3.3147504494 0.0227307013 1.0837950255
C -2.6288921622 -0.2198926290 2.4010847176
C -1.2410903558 -0.8393625794 2.2611576794
C -0.3455576831 0.0415133584 1.3824632364
C -1.1042293057 0.7241206768 0.2216055436
C -0.1804578283 1.1506675355 -0.9494632784
C 1.2186833582 1.4927595112 -0.4270029738
C 1.9783773806 0.3751564616 0.3372615521
C 0.9884543272 -0.6227991905 1.0258806148
C 1.0308582896 -1.9092723849 0.1935291937
C 2.5175654134 -1.9865418368 -0.1521473248
C 2.8573448350 -0.5640726970 -0.6061389068
C 4.3438878461 -0.2411264223 -0.5178539591
O 5.0775881514 -0.7412282791 0.3189532589
C 4.9121619890 0.7558216620 -1.5031809808
O 6.2440505226 1.0969172105 -1.1824730105
O 2.4485752927 -0.3564764485 -1.9758696446
C 2.8393322539 1.0509872962 1.4150237282
O -0.1797541364 0.2049562305 -2.0107431574
F -1.5035495202 2.0045840501 0.7803298698
H -3.3217790210 -1.8290495914 -0.7614806875
H -1.7254757409 -2.0063952402 -0.0513860298
H -1.8754048795 -1.3742971297 -1.6938970961
H -3.1558200174 1.9829280858 -0.9124043713
H -2.6058300575 0.8795166005 -2.1804579874
H -4.6614330432 -0.4733988289 -1.9523074588
H -5.1285530947 1.2085135221 -2.1413366365
H -5.2462128622 0.0845132824 1.9469104354
H -3.2740055612 -0.8267917555 3.0443570857
H -2.5283841198 0.7558941843 2.8992082097
H -0.7803980677 -0.9314297088 3.2503060692
H -1.3203218693 -1.8550364773 1.8640945829
H -0.0616345055 0.8958741663 2.0122951287
H -0.6161213901 2.0835383516 -1.3350116861
H 1.8230985653 1.8813238157 -1.2528060779
H 1.0869514500 2.3288299944 0.2688490326
H 1.4386439759 -0.8853569549 1.9940009399
H 0.6873335400 -2.7839917582 0.7531244063
H 0.4333625910 -1.8281382409 -0.7175274980
H 3.1029330224 -2.2144293065 0.7450729743
H 2.7733582780 -2.7264563910 -0.9182732523
H 4.2708190110 1.6500645349 -1.5137625493
H 4.8496136102 0.3164038820 -2.5108420270
H 6.5016312493 0.5069533980 -0.4532262063
H 2.7611348294 -1.1078928616 -2.4999280186
H 3.4514533482 0.3241950205 1.9552654343
H 3.4974436555 1.8180678831 0.9904015813
H 2.1801522795 1.5434089793 2.1371737682
H 0.7436208992 -0.0911442773 -2.1312155749
