48
CONF3
C -3.9847864210 0.6345851093 -2.0246478959
C -4.3214513126 0.3666278913 -0.5516166520
C -4.7563951928 -1.0959489840 -0.3733159772
C -5.4908533386 1.2776276880 -0.1388044049
C -3.1188069093 0.7535963042 0.3388068913
C -1.7387308004 0.2130413594 -0.0817431361
N -1.6312970284 -1.2425852481 -0.0609841710
C -1.7080749761 -2.0895039968 0.9889792413
N -1.6032122331 -3.3432308528 0.5687252609
C -1.4638009903 -3.2006677982 -0.7802557958
N -1.4691797425 -1.9471703878 -1.2111511770
O -0.8380216219 0.7731461564 0.8650084803
C 0.5198254511 0.6786657877 0.6486291874
C 1.3163265090 1.1697199624 1.6842879682
C 2.6963356846 1.1434917780 1.5659593066
C 3.3182490594 0.6227883995 0.4204854604
C 2.4969914221 0.1339389235 -0.6006972468
C 1.1081731367 0.1542794641 -0.5003485279
C 4.7899309824 0.5909479955 0.2990662298
C 5.4377277188 -0.4845576506 -0.3261177497
C 6.8236530664 -0.5120608094 -0.4418481819
C 7.5927147535 0.5327771507 0.0668040080
C 6.9616699974 1.6066328168 0.6914888624
C 5.5756562589 1.6364742801 0.8056907438
O -3.4023044690 0.3815765708 1.6849311757
H -3.6130500432 1.6559090300 -2.1696029798
H -4.8896141219 0.5166314156 -2.6292115149
H -3.2376458887 -0.0672174414 -2.4076943192
H -4.0199277359 -1.8018453142 -0.7646953190
H -4.9431344664 -1.3282458104 0.6783917659
H -5.6879875800 -1.2561393027 -0.9263096387
H -5.7668777467 1.1160177905 0.9067591215
H -5.2295781034 2.3336652514 -0.2700859248
H -6.3644707944 1.0617874565 -0.7620478609
H -3.0040988249 1.8471311263 0.2644843169
H -1.5006237108 0.5321410771 -1.1010195984
H -1.8292538130 -1.7531096432 2.0085671724
H -1.3494508741 -4.0347598435 -1.4610620184
H 0.8400888926 1.5618525193 2.5770253768
H 3.3013418855 1.5106166859 2.3890572220
H 2.9440403784 -0.2567966016 -1.5094299235
H 0.5163974372 -0.2338989623 -1.3198842785
H 4.8521686726 -1.3171566830 -0.7041642473
H 7.3053693008 -1.3580930985 -0.9225737018
H 8.6741905027 0.5101960313 -0.0227362857
H 7.5503292279 2.4303745115 1.0838018997
H 5.0951092063 2.4910077819 1.2722893319
H -2.7536588048 0.8178374069 2.2528091021
