40
CONF32
C 5.2923615666 -0.1087854975 1.6655223922
C 4.1176874808 -0.5168390216 0.8100139622
O 3.1169795361 0.5442406952 0.9138758487
P 1.7892029099 0.4799599866 0.0275427194
S 1.9890414203 0.1714816364 -1.8726650942
O 1.0783011089 1.8065236005 0.5414067782
C 0.4271603928 2.7550812371 -0.3617006099
C 1.3942159721 3.8441750859 -0.7623144148
O 1.0293047963 -0.7350164180 0.8611385315
C -0.2265807425 -1.1724097911 0.5542218032
C -0.6137891302 -2.4065714074 1.0681309454
C -1.9005975472 -2.8190376643 0.7553591352
N -2.7134854588 -2.0651179161 -0.0139552081
C -2.2344500876 -0.9012435330 -0.4529597321
N -1.0091592135 -0.4106186827 -0.1862207308
C -3.1272420382 -0.0502277840 -1.3222587860
C -3.4589037159 1.2718292883 -0.6190368712
C -2.4730230323 0.1979277268 -2.6868803711
C -2.4543246283 -4.1212331505 1.2406276402
H 4.9912778367 0.0120638719 2.7094381234
H 5.7210507864 0.8315775925 1.3092230545
H 6.0624543845 -0.8841570110 1.6128412533
H 3.6674535932 -1.4525436533 1.1597445454
H 4.3989508000 -0.6253968982 -0.2428778671
H 0.0385543880 2.2106529956 -1.2268637442
H -0.4114642074 3.1455667809 0.2197015961
H 1.7916247509 4.3553145155 0.1188096426
H 0.8724854855 4.5779962673 -1.3852459871
H 2.2250574015 3.4293353842 -1.3398612804
H 0.0601077286 -3.0004784977 1.6729664734
H -4.0512825822 -0.6194834785 -1.4643528740
H -2.5476285581 1.8551636091 -0.4575712759
H -3.9340522064 1.0976602170 0.3514174848
H -4.1424388958 1.8628140517 -1.2365903615
H -2.2458685904 -0.7444722684 -3.1947417941
H -3.1466831248 0.7796067921 -3.3239082620
H -1.5378743727 0.7539241816 -2.5693633423
H -2.7281638495 -4.7481288724 0.3860903776
H -1.7366258943 -4.6573639919 1.8641512386
H -3.3696356537 -3.9437699631 1.8138500488
