33
CONF12
C -3.6173453470 0.0390270076 -0.6436561781
C -2.3886073991 -0.8270719047 -0.9384863119
C -2.6047156939 -1.8456580615 -2.0444195507
O -3.4370320091 -1.4064039833 -3.0082678438
O -2.0632127235 -2.9319022939 -2.0826403345
C -1.1633594798 0.0024254251 -1.2943992682
C -1.1715537241 0.8734078921 -2.3880913256
C -0.0378066527 1.6159985967 -2.7104780009
C 1.1175451559 1.4951023531 -1.9499596249
C 1.1337584266 0.6445002464 -0.8394997553
C -0.0083996365 -0.0989007773 -0.5209800995
C 2.3998086586 0.4977194125 -0.0671580976
O 3.4849296143 0.6098396022 -0.6343918650
C 2.3383127678 0.2173877050 1.3933980582
C 1.3037866907 0.7141939446 2.1965018431
C 1.3210560021 0.4961744449 3.5702743418
C 2.3546724425 -0.2380457737 4.1474705347
C 3.3858390734 -0.7394909706 3.3519138849
C 3.3858010294 -0.5012032974 1.9843749030
H -3.4068323733 0.6764011088 0.2193641548
H -4.4821029141 -0.5888082467 -0.4109347202
H -3.8727480439 0.6775649972 -1.4919315686
H -2.1396576227 -1.4194388848 -0.0535896482
H -3.4896184857 -2.0885482412 -3.7003750739
H -2.0645058211 0.9708531736 -2.9977492206
H -0.0595370537 2.2892815526 -3.5614375353
H 2.0080508728 2.0633138932 -2.1970047011
H 0.0089459891 -0.7813316455 0.3231596787
H 0.5022434801 1.2950154260 1.7522251810
H 0.5265862561 0.8987966858 4.1903452903
H 2.3597229737 -0.4178044988 5.2180264194
H 4.1892389280 -1.3138621499 3.8020719159
H 4.1867368202 -0.8785326588 1.3570460163
