42
CONF9
C 0.5971963277 -0.7367620784 2.6100404719
C -0.0022742444 -1.4580871433 1.4061608847
C -1.3257455199 -2.1707064799 1.7806638784
C -2.3720188915 -1.1144447866 1.5335652480
C -1.8729454146 -0.1279910304 0.6822583982
C -0.4539079146 -0.4635118765 0.2884406926
N 0.3617624744 0.7240762135 0.1180613113
C 1.5448507429 0.7467826581 -0.5315330222
N 1.9392124610 -0.3766237580 -1.1756609467
C 3.0985875418 -0.2475568257 -1.8233521523
N 3.8742631085 0.8260835601 -1.8785250311
C 3.3901516224 1.8842150978 -1.1722576754
N 2.2383892801 1.9007307171 -0.4882234743
N 4.1335032938 3.0061751839 -1.1815919529
C 3.5138146706 -1.4726227545 -2.6105637760
C 2.8675744713 -1.4925146124 -3.9824035487
F 4.9126481243 -1.4875381157 -2.7722703507
C -2.6548498921 0.9488934061 0.2890054263
C -3.9704438872 1.0575643329 0.7595498173
C -4.4647970968 0.0615874848 1.6100250145
C -3.6770452133 -1.0234809130 1.9994595635
C -4.8234893695 2.2387938157 0.3821133708
H -0.1108344642 -0.0110968732 3.0284601981
H 1.5142972872 -0.2028745970 2.3428917924
H 0.8426170516 -1.4601486960 3.3934990473
H 0.7301261743 -2.1651054665 1.0048477519
H -1.4982975087 -3.0309873459 1.1197253251
H -1.3243788511 -2.5448237151 2.8097253149
H -0.4618919233 -0.9996593509 -0.6698416108
H 0.1543932100 1.5307764784 0.6893857529
H 3.8536245150 3.7986002022 -0.6285542553
H 5.0335786006 3.0022391853 -1.6305472383
H 3.2493921778 -2.3663814606 -2.0348832633
H 1.7797859456 -1.5155004300 -3.8755354020
H 3.1509412470 -0.5978418282 -4.5446352199
H 3.1868299388 -2.3835155164 -4.5290717196
H -2.2557869932 1.7094217528 -0.3786155065
H -5.4848210281 0.1403960964 1.9773911024
H -4.0837609382 -1.7817311713 2.6633309495
H -4.5467114358 2.6278737307 -0.6015831127
H -5.8839385753 1.9727608301 0.3671056198
H -4.6995996128 3.0545355713 1.1046358142
