43
CONF27
C -3.4460717826 2.4619624086 1.6530464916
Si -1.8835009940 1.5734037069 1.1641385404
C -0.6647933156 2.7001261978 0.3161919185
O -1.1783904090 0.8962981156 2.5296004944
O -2.2675864645 0.2822766659 0.2486855033
Si -1.8398723530 -0.6780654396 -1.0218274058
C -3.1087138568 -0.4366652863 -2.3634649155
C -1.7629885541 -2.4338949072 -0.4114953218
O -0.3914811007 -0.1807849922 -1.6179936450
Si 1.2342911854 -0.4364714202 -1.6058499237
C 1.5944217753 -2.2482792503 -1.8844881803
C 1.9650143075 0.6480503671 -2.9285121014
O 1.8655433127 0.0512178916 -0.1669054912
Si 2.0611620945 -0.5079590604 1.3769953689
C 3.3611577706 -1.8422684228 1.4073168387
C 2.5320405177 0.9812771077 2.4024781637
O 0.6721588959 -1.2070845404 1.9290073879
H -3.2438187694 3.2940376602 2.3364787541
H -4.1374839865 1.7741350295 2.1502959952
H -3.9522104775 2.8723468752 0.7728084148
H -1.0759450291 3.0835320698 -0.6241019257
H -0.4147810735 3.5623964782 0.9450867998
H 0.2609606269 2.1634552339 0.0845673652
H -0.9131432246 1.4901112540 3.2371997060
H -4.1144899354 -0.6744944763 -2.0023223662
H -3.1097705439 0.6027302941 -2.7085513428
H -2.8979984394 -1.0757880344 -3.2271664696
H -1.4998648558 -3.1278014151 -1.2167533453
H -2.7346291462 -2.7382380395 -0.0078426534
H -1.0208033803 -2.5276780538 0.3886751641
H 1.1605570076 -2.5944241420 -2.8288073140
H 2.6741318966 -2.4284627815 -1.9235368723
H 1.1793685991 -2.8633897745 -1.0791740006
H 3.0540714155 0.5452748953 -2.9683689573
H 1.5607962262 0.3982905345 -3.9146545588
H 1.7329477982 1.6989273106 -2.7256360243
H 3.0157962011 -2.7358938568 0.8776492644
H 4.2879942379 -1.5036802598 0.9332222924
H 3.5917091768 -2.1361350396 2.4364931200
H 3.4768205918 1.4133295214 2.0562711393
H 1.7655972393 1.7600154961 2.3214734742
H 2.6444278701 0.7181802752 3.4592229062
H -0.0326311237 -0.5939160217 2.2005472092
