47
CONF61
C -5.7796853889 -2.6183119466 -1.1731516948
O -5.1095531451 -1.9025923983 -0.0952104923
P -5.6872417142 -0.5033764744 0.4154193229
S -6.1464061608 0.8236885008 -0.9284135503
O -6.8455929882 -0.9807258867 1.4065171703
C -7.7361791612 -0.0037582659 2.0170566398
O -4.5375810270 -0.0704452749 1.4744242784
C -3.4347506780 0.7000897836 1.0931157563
C -2.4488595651 0.1606923591 0.2746040033
C -1.3428579791 0.9352596805 -0.0513881362
C -1.2156191147 2.2270279808 0.4669712273
C -2.2101025442 2.7476625516 1.2983796731
C -3.3336878603 1.9857534350 1.6024832908
S 0.1532897776 3.2927561308 0.0314787618
C 1.5439552482 2.1684794652 0.0012164471
C 1.7635971037 1.2477886392 1.0302668807
C 2.8803369770 0.4239514486 0.9968538733
C 3.7873484829 0.5513828835 -0.0487209227
C 3.5980274900 1.4762509295 -1.0662375584
C 2.4607158429 2.2785959796 -1.0457072151
O 4.9291192612 -0.2495988012 -0.0165267655
P 5.2167790996 -1.3932827353 -1.1447220082
S 3.6536572160 -2.3576016670 -1.7653680747
O 6.3817933845 -2.2022189436 -0.4112266477
C 6.0759436190 -3.0114972099 0.7607855117
O 6.0007809054 -0.6748144206 -2.3312908359
C 7.1891998239 0.1322514941 -2.0536378953
H -5.1871107974 -3.5174634842 -1.3375229900
H -5.7957292183 -2.0022572037 -2.0755433170
H -6.7961201296 -2.8846860507 -0.8719674582
H -8.4287656997 -0.5819536676 2.6276996028
H -7.1640242536 0.6854766005 2.6441217115
H -8.2769269917 0.5436372792 1.2412740882
H -2.5498518345 -0.8480158014 -0.1112500379
H -0.5776480600 0.5273624814 -0.7031794749
H -2.1104347133 3.7465240099 1.7105535802
H -4.1171988048 2.3766944972 2.2426116648
H 1.0602493211 1.1661420241 1.8522630373
H 3.0607613354 -0.3048355211 1.7799353611
H 4.3181884392 1.5630192307 -1.8730720299
H 2.2902640933 2.9884710143 -1.8483974088
H 5.6863998626 -2.3780089633 1.5618305696
H 5.3524179517 -3.7874070566 0.4976949919
H 7.0214505893 -3.4615623795 1.0609180158
H 8.0070677531 -0.5140689085 -1.7295803175
H 7.4361214107 0.6165109740 -2.9975616133
H 6.9644617513 0.8830138835 -1.2917530031
