56
CONF4
C 1.7408999709 -4.7529465758 -0.0871494623
N 1.3277928494 -3.3532826267 0.0189837086
C 1.5759240930 -2.6664628372 1.2890480682
C 0.4303123918 -2.7643518634 2.2982768876
C 0.5411465290 -1.6649444924 3.3576360251
O 0.4154114556 -0.3607593428 2.7723312850
O 0.3449274974 -4.0513814445 2.9145202720
C 0.8692020650 -2.7178916753 -1.0803487009
O 0.7596821210 -3.2320914314 -2.1952165379
C 0.4231910891 -1.2835108469 -0.8889916291
C -0.9138843527 -0.9982132754 -0.6119546905
C -1.3616978774 0.3164386531 -0.4526291759
C -0.4511271100 1.3591342945 -0.6532251346
C 0.8922985637 1.1150337112 -0.9360624033
C 1.3044278526 -0.2146922530 -1.0595799212
I 3.3251594443 -0.6535906929 -1.5310495372
C 1.8607849262 2.2429619945 -1.2130064558
O 2.1587141527 2.4961972519 -2.3814601888
N 2.3779259489 2.8981118721 -0.1564217530
C 1.9768268865 2.8325387947 1.2462071131
C 2.9540146617 2.0580995942 2.1326051671
C 2.6663379693 2.3173063355 3.6118384133
O 1.2914645014 2.1447548704 3.9652895607
O 2.9196236611 0.6637464588 1.8174148060
I -1.1786849667 3.3479100708 -0.5914148141
N -2.6852251390 0.5814217462 -0.0437764588
C -3.0500421546 0.4633771717 1.2547378295
O -2.2893254305 0.1061940362 2.1577903457
C -4.4912893578 0.7958691182 1.5636688551
O -5.1761715283 1.1989199386 0.3949700971
C -6.5472196248 1.5086928156 0.6573615242
I -2.3345478080 -2.5685242105 -0.5129249497
H 2.8224995507 -4.8219666494 -0.2592946844
H 1.4906808170 -5.2659320897 0.8434164249
H 1.2165947783 -5.2237890011 -0.9190006603
H 2.4896094182 -3.0859250009 1.7296865285
H 1.7767441220 -1.6131933966 1.0889575024
H -0.5230314696 -2.6354104338 1.7740408918
H 1.5240821802 -1.6976018270 3.8441813608
H -0.2318140281 -1.8266624408 4.1190641685
H -0.5025413447 -0.2349755520 2.4499593672
H 1.1817422098 -4.2242892955 3.3678077346
H 3.0321094134 3.6298158978 -0.4062292857
H 1.8762896194 3.8603290738 1.6138415524
H 0.9924168239 2.3659869216 1.3262032514
H 3.9810458395 2.3876348458 1.9287405509
H 3.3165389861 1.6624595505 4.2104675437
H 2.9152058223 3.3577785190 3.8489344235
H 1.0229462181 1.2337067447 3.7518972903
H -4.4899684426 1.5886624409 2.3288459295
H -4.9457375703 -0.1028153268 2.0120100772
H -6.6299163262 2.3357835821 1.3753983930
H -7.0758137783 0.6310392047 1.0533586445
H -6.9924454382 1.8051161290 -0.2937556757
H -3.3729960958 0.9286324951 -0.7025508191
H 2.0178427985 0.3424641432 2.0040733766
