38
CONF24
O 0.7610490846 0.3890096906 0.7515450283
P -0.2296225624 -0.3120715749 -0.0935528276
O -1.3148547620 -1.2144570524 0.6697486070
C -0.8934193873 -2.0520953157 1.7238236626
C -0.5400784617 -3.3623128487 1.4358434151
C -0.1741562860 -4.1972363991 2.4896633378
C -0.1676982880 -3.7178457190 3.7979017663
C -0.5301568113 -2.3976587717 4.0590798675
C -0.8976132646 -1.5500284652 3.0168168799
O 0.3523524632 -1.3518140989 -1.1675291309
C 1.5228944210 -1.0304888948 -1.8845546162
C 2.7468332559 -1.4389254745 -1.3759111942
C 3.8964473486 -1.1675664017 -2.1136866867
C 3.8082609090 -0.4992386302 -3.3336031568
C 2.5657079948 -0.1011414702 -3.8223664924
C 1.4059420508 -0.3662611150 -3.0969313453
O -1.1691646483 0.6084592327 -1.0115657152
C -1.6876089843 1.8111031948 -0.4884815985
C -0.9759318542 2.9844691071 -0.6896151792
C -1.5169609360 4.1782681966 -0.2188128485
C -2.7457766359 4.1828491339 0.4389580570
C -3.4407475593 2.9898836309 0.6263707943
C -2.9137298213 1.7872431046 0.1601371071
H -0.5566050075 -3.7166014053 0.4109105878
H 0.1038925227 -5.2257528019 2.2833120173
H 0.1174456077 -4.3733267149 4.6141940837
H -0.5282879021 -2.0220215893 5.0771960049
H -1.1831431739 -0.5188286158 3.1954133306
H 4.8625648571 -1.4805223411 -1.7310293796
H 4.7074272875 -0.2907150825 -3.9039268669
H 2.4930116362 0.4166651355 -4.7733110599
H 0.4286211920 -0.0697014358 -3.4621840875
H -0.0211064245 2.9560954697 -1.2038672532
H -0.9739477733 5.1059118856 -0.3681113763
H -3.1623749721 5.1160810707 0.8034292686
H -4.3992477361 2.9901388838 1.1353005070
H -3.4412715251 0.8486788982 0.2913393400
H 2.7908168313 -1.9570810316 -0.4237838519
