42
CONF249
C -5.9059545051 1.9719668430 2.2511822397
C -4.5268004037 1.6283309527 2.8059367745
C -3.7720695541 0.6119657607 1.9715870873
O -4.4999027525 -0.6209445324 1.8351684722
C -4.7339447518 -0.8548640726 0.4381285900
C -3.6705110935 -0.0001297965 -0.2436107956
O -3.5702885083 1.1153356570 0.6523799749
C -2.3526297723 -0.7385321024 -0.3917602511
O -1.4134324394 0.1808178963 -0.9609200208
C -0.1341481284 -0.2549032485 -1.1561474708
C 0.3115128689 -1.5481902989 -0.8772974681
C 1.6468486462 -1.8804147629 -1.1129854026
C 2.5161335716 -0.9345921549 -1.6309440928
C 2.0743028885 0.3548949780 -1.9229461718
C 0.7531567344 0.6939529762 -1.6805609919
O 3.8191372919 -1.3227824619 -1.9307554646
C 4.8598614509 -0.6762069455 -1.2954239535
C 4.7075099372 0.0152348548 -0.0941078010
C 5.8261791520 0.6011016794 0.4953479987
C 7.0821036911 0.4989235513 -0.0976615677
C 7.2178268082 -0.2022999294 -1.2957707899
C 6.1117488176 -0.7889851211 -1.9003906415
H -6.5332350555 1.0777923383 2.1857592305
H -5.8309234147 2.4103241539 1.2521856896
H -6.4102690747 2.6921958625 2.9016647648
H -4.6084374989 1.2177761640 3.8190969192
H -3.8988063560 2.5245716472 2.8797552681
H -2.8015830226 0.3696436793 2.4351586488
H -4.6280793637 -1.9254320054 0.2381526201
H -5.7404273643 -0.5216949930 0.1548981921
H -3.9947059293 0.3891584237 -1.2133412262
H -2.4945949521 -1.6008338316 -1.0580867050
H -1.9931369258 -1.0970429569 0.5830095074
H -0.3553236104 -2.3023249243 -0.4782459059
H 2.0090871404 -2.8801379347 -0.8963276741
H 2.7639490920 1.0853695817 -2.3340092587
H 0.3881449584 1.6920515319 -1.9001637925
H 3.7331885433 0.0932545440 0.3753131498
H 5.7081338914 1.1384381872 1.4314548336
H 7.9467796589 0.9593359134 0.3685642932
H 8.1910692166 -0.2898762707 -1.7689700659
H 6.2025312976 -1.3341969284 -2.8343166950
