37
CONF7
C 3.7144662319 -2.7370555104 1.4974701084
C 3.3588352847 -1.6914153723 0.4427052135
C 1.8489770557 -1.4919935507 0.3121199652
C 1.5013365531 -0.4591192618 -0.7545952065
C -0.0232910963 -0.1855763748 -0.8983455670
C -0.2076030361 0.8803875146 -2.0264002594
N -1.5737910031 1.3447469268 -2.1466319690
C -2.1331668857 2.4496783363 -1.6092522155
N -3.4366002438 2.4680506378 -1.8526968117
C -3.6268648704 1.3124097040 -2.5503169169
N -2.5286793596 0.5952321141 -2.7515284415
C -0.6440767954 -1.4397359016 -1.3305605629
N -1.0726748349 -2.4516823386 -1.6878692719
C -0.6622939395 0.3215907771 0.3938805887
C -0.0692581002 1.3882287546 1.0743235274
C -0.6551661920 1.9224604889 2.2150967408
C -1.8511816393 1.3814682532 2.6721262644
Cl -2.5996925044 2.0521839838 4.1144173127
C -2.4660845250 0.3259389509 2.0150327865
C -1.8638766633 -0.1968954702 0.8737538891
H 3.3305230718 -2.4451439166 2.4811107152
H 4.7979911696 -2.8642049329 1.5824692057
H 3.2793223777 -3.7099563896 1.2440895846
H 3.8281394071 -0.7323000045 0.6980485780
H 3.7699203642 -1.9909726410 -0.5300926258
H 1.4379559861 -1.1753635592 1.2793350637
H 1.3758811608 -2.4516850541 0.0660398099
H 1.8790438788 -0.7830045755 -1.7316789333
H 1.9887213182 0.4951193966 -0.5275629303
H 0.4157305227 1.7435534113 -1.7799439942
H 0.1175483494 0.4688536491 -2.9855006270
H -1.5598266642 3.1942574638 -1.0721205420
H -4.5908049636 0.9935564765 -2.9262543220
H 0.8590893896 1.8244419467 0.7209443239
H -0.1874810544 2.7486158894 2.7382238486
H -3.4000245319 -0.0852734134 2.3803951130
H -2.3510440329 -1.0193957150 0.3597678800
