38
CONF1
F -1.8801258785 1.4000803237 -0.0724218758
C -1.6067672642 0.1117537756 0.2319449374
F -1.6922701099 -0.0456143855 1.5703473258
C -0.1708943710 -0.2617612271 -0.2488341448
F 0.2145958824 -1.3850518457 0.3965807682
F -0.2101953583 -0.4987232151 -1.5772710598
C 0.8870282878 0.8642168741 0.0267091283
F 0.7220580512 1.8449652605 -0.8888130283
F 0.6674931634 1.3702789623 1.2630444616
C 2.3689584518 0.3539330606 -0.0433285522
F 2.6517103172 -0.3146582881 1.0979023894
F 2.4945307924 -0.4906456769 -1.0910854921
C 3.4109745864 1.5106984891 -0.2174916799
F 3.3965632641 1.9227963461 -1.5024381483
F 3.0740913391 2.5465728892 0.5862969040
C 4.8798471560 1.1024792208 0.1311628866
F 5.7031825639 2.0817846370 -0.2668918957
F 5.0320704531 0.9278322018 1.4479245602
F 5.2123561140 -0.0289960927 -0.5055617591
S -2.9749429419 -0.9647701274 -0.5685803062
O -2.5437736752 -2.3443421692 -0.3139701498
O -3.1758987154 -0.4131838972 -1.9042820645
N -4.2685111751 -0.6145027780 0.3920531827
C -4.5853219345 -1.5065202419 1.5133022139
C -5.6880539625 -2.5169262510 1.1835918781
O -5.4649958745 -3.2191618448 -0.0245587376
C -5.2486994834 0.4102065452 -0.0107164780
C -5.3418250828 1.5520283247 0.9942526397
H -3.6738316139 -2.0354504288 1.8036406823
H -4.8880097224 -0.8968628592 2.3741446517
H -5.7768482968 -3.1966119890 2.0477699479
H -6.6549512038 -2.0145940602 1.0675142291
H -4.9537168796 0.7867979476 -0.9919930858
H -6.2208748387 -0.0814252740 -0.1412731821
H -5.6783047122 1.2105895770 1.9773169955
H -4.3736506356 2.0460962984 1.1119912311
H -6.0654565508 2.2910661798 0.6379148695
H -4.5379277279 -3.4913912543 -0.0627533697
