45
CONF41
C 6.8840228581 -1.1550593755 -1.9227319769
C 5.8385714572 -1.0121706881 -0.8181878248
C 5.1300100644 0.3417493931 -0.8468846683
C 4.0760929866 0.4924700045 0.2486896660
C 3.3574155724 1.8403680256 0.2034488528
C 2.3403338013 2.0446944509 1.3316616113
C 1.2113678435 1.0101265400 1.3858070717
C 0.3729090485 0.9587977170 0.0974411026
C -0.8059935001 0.0276277830 0.2122589598
C -0.6286664476 -1.3341015334 -0.0635344167
N -1.7294778709 -2.1238414158 0.0905941284
C -2.9569360323 -1.6279526455 0.5079519497
N -3.8274446887 -2.6519750177 0.5562010895
C -3.0809407886 -3.7085445237 0.1660060366
N -1.8013368314 -3.4669800637 -0.1304677022
N -3.1441845277 -0.3426962466 0.7944802541
C -2.0778356306 0.4605038678 0.6485396279
C -2.3411741788 1.9152743543 0.9364937142
C -2.7981696892 2.6576319216 -0.3287486246
N 0.5161480957 -1.9406630856 -0.4273713015
H 7.3809322056 -2.1295598184 -1.8823841898
H 7.6541769281 -0.3807569643 -1.8334359153
H 6.4230063938 -1.0530784893 -2.9115688061
H 6.3149045919 -1.1482303856 0.1618529584
H 5.0907579664 -1.8112131349 -0.9114716845
H 4.6542293426 0.4801551707 -1.8284263633
H 5.8755546493 1.1437273575 -0.7498300210
H 4.5482816983 0.3659161279 1.2335666887
H 3.3482478953 -0.3245259253 0.1522633850
H 2.8662812301 1.9561335985 -0.7720374494
H 4.1051408194 2.6425101568 0.2602589572
H 1.8946446827 3.0436512791 1.2326513433
H 2.8692360172 2.0327291317 2.2937359048
H 1.6147282363 0.0121488022 1.5977366276
H 0.5457657892 1.2533931607 2.2231384572
H 0.0283905981 1.9675018057 -0.1479181150
H 1.0038873079 0.6592517699 -0.7479896027
H -3.4790961463 -4.7136805433 0.0908179766
H -1.4523317191 2.3972154274 1.3524029239
H -3.7141521624 2.2083501924 -0.7239820295
H -2.0339679128 2.6144594439 -1.1111415561
H 1.3015871836 -1.3827814252 -0.7173664661
H 0.4728293889 -2.8919473523 -0.7602798765
H -3.1291197016 1.9676698253 1.6928941216
H -2.9989085645 3.7088819993 -0.1027406221
