43
CONF40
C 3.5648006833 -2.9708039948 -2.8317508542
O 4.2720731148 -2.5672027172 -1.6665696550
C 3.8021593734 -1.4766525675 -0.9908665446
C 2.6745254735 -0.7532888733 -1.3719175521
C 2.3404442695 0.3267622037 -0.5552471379
C 3.0828822223 0.6934001862 0.5919174596
C 4.2124113010 -0.0506113477 0.9423853792
C 4.5581218563 -1.1270113063 0.1500308185
N 2.5165736794 1.8022022833 1.2040256153
C 1.4788045839 2.0673733612 0.4620966544
N 1.3175976619 1.2452861388 -0.6220932845
S 0.2570516580 3.3651515758 0.7334712118
O -0.6188592308 3.3053485756 -0.5125829342
C -0.6734581186 2.4476440534 2.1216760696
C -1.2424519038 1.1749770084 1.6004581744
N -0.4531242660 0.1012344192 1.7386498063
C -0.8584178046 -1.0519379705 1.2124026714
C -2.0411810846 -1.2099689012 0.4920597013
C -2.4512106009 -2.5289559845 -0.0894493242
C -2.8459530674 -0.0749458592 0.3595585964
O -4.0366505921 -0.1985670267 -0.3226951413
C -3.9735144524 0.3162903126 -1.6615788290
C -2.4822452822 1.1461874517 0.9360360992
C -3.3977005520 2.3365158790 0.8796913840
H 3.5620962076 -2.1780648469 -3.5919995098
H 4.0964854610 -3.8410966978 -3.2187893944
H 2.5301516145 -3.2530103815 -2.5935067305
H 2.0846899940 -1.0056361231 -2.2434355918
H 4.7952623328 0.2129522362 1.8177952183
H 5.4234962346 -1.7371393320 0.3831902714
H 0.5446996308 1.3131393591 -1.2674010885
H 0.0821104611 2.2711712123 2.8914986986
H -1.4177067242 3.1732161073 2.4574944076
H -0.1984482295 -1.9072824569 1.3586868266
H -2.5866871265 -2.4668305916 -1.1739788601
H -3.4076446955 -2.8588304927 0.3278284086
H -1.6970687943 -3.2913054727 0.1202588096
H -3.2616672799 -0.2621072142 -2.2652716093
H -4.9762458351 0.2141061326 -2.0806628880
H -3.6729251631 1.3710420404 -1.6699989457
H -3.5283809497 2.7673130740 1.8777649784
H -2.9907712041 3.1164196462 0.2293657921
H -4.3841261741 2.0435175468 0.5171800987
