36
CONF29
C 1.2633876079 -2.4327433965 -3.9317859249
C 0.6409724340 -1.0604246839 -3.8726265406
O 0.3881803292 -0.7651061338 -2.4583065366
C -0.1586072463 0.4219863226 -2.1918060098
O -0.4640965892 1.2514427305 -3.0210976062
C -0.3121160120 0.6797544953 -0.6973525167
S -0.7178729448 -0.9151245666 0.1790856455
P -1.2592691933 -0.1281913871 2.0736334214
S -2.4438190731 1.4122696924 2.0555496559
O -1.7733565534 -1.4749101953 2.7930880277
C -3.0975849481 -2.0055950389 2.5080385610
O 0.0802881076 0.1831790950 2.8957975487
C 1.0994276199 -0.8363126160 3.1073023959
C 0.9353998940 1.3477553369 -0.1637139303
C 2.1513849851 0.6626997238 -0.0917410460
C 3.2844812956 1.3033261703 0.3956310278
C 3.2143592591 2.6324847286 0.8128379091
C 2.0063416790 3.3192746375 0.7353503897
C 0.8692809430 2.6800070590 0.2466416816
H 1.4663755982 -2.6867707542 -4.9760633981
H 2.2074062037 -2.4579295178 -3.3805412897
H 0.5884951387 -3.1868254094 -3.5178014894
H 1.3047071477 -0.2841523258 -4.2643185524
H -3.2055616636 -2.8799387480 3.1492742097
H -3.1704127522 -2.2972530665 1.4568272817
H -3.8574696719 -1.2584731235 2.7502968553
H 1.9663196877 -0.3035694328 3.4976567404
H 1.3533654637 -1.3218125800 2.1609093305
H 0.7413042382 -1.5707308629 3.8319433922
H 2.2055900716 -0.3756682836 -0.4044593161
H 4.2246718870 0.7637645405 0.4530149386
H 4.0993136709 3.1289236216 1.1982537954
H 1.9440524307 4.3530819647 1.0601143699
H -0.3140599248 -1.0121264798 -4.4034194031
H -1.1700398912 1.3459953899 -0.5784213166
H -0.0756986285 3.2117733830 0.1925918936
