38
CONF10
C 1.7049050014 -3.0500139836 1.3814484259
C 1.7790278443 -2.1579726191 0.1342580903
C 1.6498174454 -0.6886685409 0.4583726510
C 0.5481239778 0.0871244871 0.0505143617
C 0.4576219041 1.4554813054 0.3595858407
C 1.5001352375 2.0370593468 1.0851980179
C 2.5944827573 1.2880241603 1.4956696630
C 2.6661173321 -0.0633511281 1.1826021782
C -0.7063318865 2.3178885934 -0.0600024094
C -1.6009051820 2.7091292768 1.1234290866
N -0.5037598436 -0.5485104439 -0.6960594081
C -1.5234331582 -1.2934591313 0.0505191384
O -2.5735551486 -0.4897573199 0.5381382446
C -3.5295657269 -0.1302425185 -0.4639888665
C -0.5075216693 -0.5861473869 -2.0706473809
O -1.3695965447 -1.1504923198 -2.7228243055
C 0.6818291186 0.1449203195 -2.6992983440
Cl 0.6233860582 0.0913400588 -4.4954186604
H 0.7511205571 -2.9237713126 1.9026842829
H 1.8064474015 -4.1036966289 1.1052696672
H 2.5037953857 -2.8048073216 2.0872580418
H 1.0088801586 -2.4620445620 -0.5799002433
H 2.7455725181 -2.3196372961 -0.3589268607
H 1.4489908894 3.0964934301 1.3210414436
H 3.3990091328 1.7603323066 2.0507116520
H 3.5297127018 -0.6458075399 1.4915865213
H -0.3122295684 3.2265626158 -0.5317520021
H -1.3080528145 1.8027720574 -0.8120939175
H -2.4271847389 3.3417534348 0.7843005526
H -2.0189009335 1.8154294983 1.5937652476
H -1.0338802990 3.2644997784 1.8768506219
H -1.0417599097 -1.7176538622 0.9352977142
H -1.9032413247 -2.0863307893 -0.6063414976
H -3.0756881774 0.4694256361 -1.2624024537
H -3.9803148401 -1.0256964218 -0.9118955310
H -4.2994826196 0.4583315279 0.0391330937
H 0.6945452988 1.1947194531 -2.3963240261
H 1.6218844538 -0.3132264937 -2.3797583868
