47
CONF146
C -3.8922091584 -1.0722171584 0.8572441405
C -2.3957941949 -1.2309360934 1.0049554872
C -1.8194767766 -1.8481370138 2.2568941952
C -1.7349162403 -0.3330348302 2.0543911165
C -0.4159625615 0.2645235903 1.8056736641
O 0.5948637301 -0.3060228965 1.4539947241
O -0.4744497037 1.6186325627 2.0081458663
C 0.7434011519 2.3428960028 1.6675873944
C 0.7502232965 3.5256090584 2.5254816043
N 0.7788034596 4.4687818233 3.1906622712
C 0.7550946617 2.6953051981 0.1976984495
C 1.5695607212 1.9574524674 -0.6567976583
C 1.5206944514 2.2156053960 -2.0246458344
C 0.6952433483 3.2136808950 -2.5354945319
C -0.1000997726 3.9529483832 -1.6652455630
C -0.0833579288 3.6946822086 -0.2987190714
O 2.3252233935 1.5485850600 -2.9237476591
C 2.6434862562 0.2189759449 -2.6760306555
C 3.9612070889 -0.1684437531 -2.8890716963
C 4.3078535619 -1.5074350884 -2.7225125018
C 3.3487759951 -2.4423945382 -2.3393571834
C 2.0310327973 -2.0355362691 -2.1330251096
C 1.6673695885 -0.7035113536 -2.3061204523
C -2.6611143606 -2.3612769858 3.3394076860
C -2.3899504677 -3.4365228509 4.0799235637
Cl -3.4543371105 -3.9835623580 5.3506006147
Cl -0.9689578319 -4.4266447176 3.8854482449
C -1.6844160004 -1.5165544023 -0.2972746620
H -4.3792805062 -0.7705403835 1.7864726369
H -4.3344983523 -2.0172871477 0.5232489455
H -4.1064836198 -0.3106301798 0.1005349277
H -0.8725987031 -2.3572391628 2.1057823282
H -2.4191887700 0.2837788737 2.6267548935
H 1.6140859992 1.7278784812 1.9215906505
H 2.2202668771 1.1850366599 -0.2634608413
H 0.6833413753 3.3997360873 -3.6042196413
H -0.7445672753 4.7307995248 -2.0612412411
H -0.7169214807 4.2631606937 0.3750106191
H 4.6967259024 0.5738595973 -3.1809584765
H 5.3353805641 -1.8162695260 -2.8872121420
H 3.6246860305 -3.4830802289 -2.2050069638
H 1.2749603094 -2.7590062498 -1.8437655682
H 0.6415982200 -0.3830876985 -2.1552466850
H -3.5819978831 -1.8355584547 3.5734229932
H -1.8192445917 -0.6807600703 -0.9933899559
H -2.1184124558 -2.4119619257 -0.7546555708
H -0.6156415418 -1.6842764783 -0.1566806414
