18
CONF9
O 0.1448121188 -1.6690926258 -0.2517104532
C 0.0415198146 -0.4797114784 -0.0569270541
O -1.1051233598 0.2118831245 0.0315498692
C -2.3046098680 -0.5932081595 -0.1244854201
C -3.4824064175 0.3439770051 -0.0001452808
O 1.0529062177 0.3867281427 0.1089561487
C 2.3742281690 -0.2134826136 0.0361938803
C 3.3749445127 0.8990955528 0.2390737097
H -2.2710207528 -1.0873933913 -1.1010215862
H -2.3095552306 -1.3685321126 0.6486547849
H -3.4507341637 1.1144015466 -0.7749876260
H -3.4900246357 0.8331984645 0.9774087824
H -4.4120179397 -0.2216652776 -0.1117671875
H 2.4860399438 -0.6979913928 -0.9393459784
H 2.4516197250 -0.9852007714 0.8091640954
H 3.2741052684 1.6613407065 -0.5380275441
H 3.2366276291 1.3750501358 1.2134432195
H 4.3886890746 0.4906029381 0.1939849445
