119
CONF38
C -10.4138677090 2.4223423018 3.4796374849
C -10.1578522157 3.2428641783 2.2134528881
C -11.3753377582 3.1860015651 1.2901974641
C -8.8567762930 2.7901302159 1.5134357199
C -8.6403916839 3.5898630765 0.2134167429
O -8.2688195312 4.7577468290 0.2872414459
N -8.8625978973 2.9869269997 -0.9831718684
C -8.7971197001 3.8206920239 -2.2043133624
C -9.4161695487 2.9311938196 -3.2615439796
C -8.5820459298 2.3862232846 -4.3877560491
C -9.6609994215 3.4101001432 -4.6554414379
C -10.3644395372 2.0226729704 -2.5083216673
C -9.5358289102 1.6991123789 -1.2540401903
C -8.5723701702 0.5769669220 -1.5401084067
N -8.8683508618 -0.4778683088 -2.2834320947
C -7.7483207158 -1.2602884194 -2.2601533116
C -6.7504415913 -0.6796984560 -1.4938545864
N -7.3119783639 0.5012992739 -1.0387269358
C -5.4000519566 -1.1112603215 -1.1858998114
C -4.5918010713 -0.4184119119 -0.2610841296
C -3.3195088575 -0.8826228800 -0.0182769894
C -2.7924964173 -2.0176041086 -0.6490576003
C -3.5832103433 -2.7092070945 -1.5607336731
C -4.8682973254 -2.2498003907 -1.8214175826
C -1.4221585768 -2.2332041519 -0.1769037785
C -1.0977539771 -1.2335327063 0.7533240321
C -2.2830869093 -0.3129142702 0.9199947672
F -1.9725886035 0.9989568026 0.6207543417
F -2.7305665940 -0.2825196360 2.2284442663
C 0.1335450482 -1.1686068814 1.3648917140
C 1.1033685495 -2.1391656097 1.0497824657
C 0.7728209210 -3.1420042339 0.1249528448
C -0.4742388731 -3.1986967424 -0.4922907531
C 2.4391373850 -2.0993193382 1.6740786421
C 3.5729315993 -2.4236125670 0.9222643721
C 4.8020269216 -2.3711879884 1.5638697974
C 4.9412683161 -2.0020871248 2.9235935581
C 3.8055730595 -1.6817056209 3.6670762120
C 2.5746075806 -1.7335386545 3.0337179780
N 6.2762008938 -2.0175587873 3.2917396045
C 6.9188046653 -2.3788809202 2.2036777225
N 6.0886606247 -2.6093407067 1.1331083772
C 8.4023164002 -2.5577526681 2.0769514912
C 9.1845623794 -2.1798439109 3.3445072733
C 10.6513629973 -2.6268544973 3.1518730476
C 11.2085969402 -1.6126299721 2.1022972116
C 9.9688423187 -0.7480506890 1.8058136319
C 9.2975266687 -0.6537286329 3.1794725036
N 8.9952568653 -1.6078677922 1.0879077536
C 8.9260748629 -1.8476938824 -0.2365381107
O 8.2469713594 -2.7726627093 -0.7064760351
C 9.6507020888 -0.8671301240 -1.1585156995
C 8.8340496627 0.4512618737 -1.2853003707
C 9.6071965850 1.4615197243 -2.1318750649
C 7.4346331128 0.2085248983 -1.8489768492
N 9.8567019994 -1.5154310580 -2.4374138567
C 11.0965259957 -1.5526067765 -3.0028436021
O 12.0642907439 -0.9107356486 -2.6384313890
O 11.0958915669 -2.4000783291 -4.0691146175
C 12.3544549975 -2.4734164360 -4.7623397735
N -7.7428825533 3.0557583185 2.4207060512
C -6.4714061552 2.8144838563 2.0051958773
O -6.1762047288 2.1415925362 1.0241434169
O -5.5658231673 3.3760226574 2.8259952932
C -4.1870322063 3.1072368376 2.4790375516
H -11.3051626570 2.7918864736 3.9958515536
H -10.5872200393 1.3711963362 3.2223320578
H -9.5750550304 2.4603740182 4.1788226463
H -10.0016492583 4.2975583457 2.4845748530
H -12.2451305835 3.6074620270 1.8023688278
H -11.2220840017 3.7582291444 0.3702230939
H -11.6259343081 2.1525972840 1.0258105437
H -8.8898103898 1.7101134998 1.3237062587
H -9.3768024988 4.7382715724 -2.0376973017
H -7.7650849684 4.1124702230 -2.4251538942
H -7.5488389931 2.7122832365 -4.4540237135
H -8.7603909651 1.3607364547 -4.6931016966
H -10.5663580055 3.0757767470 -5.1521133712
H -9.3511140053 4.4200637955 -4.9058943986
H -11.2715954297 2.5660345854 -2.2143209889
H -10.6372405045 1.1190496343 -3.0547380381
H -10.1802067955 1.4236100147 -0.4140856358
H -7.7134592265 -2.1999758486 -2.7928570766
H -6.8898795362 1.1774407758 -0.4031035605
H -4.9537554763 0.4606326057 0.2598227761
H -3.2091499027 -3.5901737417 -2.0727261987
H -5.4784511962 -2.7826133820 -2.5425567450
H 0.3665021391 -0.3651770405 2.0563684052
H 1.5063779447 -3.9118688387 -0.0926343433
H -0.6973035790 -3.9934719549 -1.1970712360
H 3.4894819174 -2.6699315845 -0.1310674185
H 3.8907953653 -1.4095892635 4.7135067659
H 1.6765806271 -1.5177922805 3.6031363254
H 6.4303274530 -2.8719081115 0.2158496673
H 8.6112621846 -3.5845905252 1.7477604440
H 8.7003120637 -2.5328177115 4.2537221074
H 11.1942099190 -2.5514295844 4.0980501129
H 10.7237493383 -3.6640702980 2.8122634149
H 12.0103215724 -0.9952127985 2.5192527125
H 11.5924803793 -2.0947482964 1.1991513742
H 10.1543901458 0.1905897980 1.2840323360
H 9.9517058090 -0.1940578362 3.9250081808
H 8.3300837104 -0.1482193521 3.1611934801
H 10.6399213237 -0.6197780708 -0.7569376299
H 8.7273726897 0.8524606870 -0.2682312712
H 9.0665429337 2.4119636125 -2.1759518200
H 10.6069164657 1.6464142307 -1.7274915234
H 9.7261181499 1.0924361523 -3.1554928215
H 7.4921435063 -0.2303502170 -2.8506136738
H 6.8935567926 1.1558455897 -1.9301389929
H 6.8464766848 -0.4609563556 -1.2139408219
H 9.2029301592 -2.2496829793 -2.6738294909
H 12.1939231681 -3.1798033913 -5.5771440124
H 12.6356891356 -1.4924669095 -5.1548895793
H 13.1428659774 -2.8310820640 -4.0945743279
H -7.8449689228 3.8605516760 3.0226782165
H -3.9729483768 3.4595074276 1.4674517291
H -3.5984238902 3.6585948789 3.2113708078
H -3.9771032120 2.0373612412 2.5458713097
