74
CONF25
C -0.3823328934 -1.0319993253 -0.3796428030
C 0.6148708848 -2.0426648933 -0.9272459540
O -0.0530838872 -3.3348976773 -0.7137778357
C -0.9774080127 -3.2318545151 0.2776944631
O -1.5924008197 -4.1958914508 0.6690396530
C -1.0060409051 -1.8055717837 0.7702567124
C -2.3250230526 -1.1758725530 1.2258401985
C -3.4647162324 -1.3654031396 0.2306185944
C -4.2682178545 -2.5030308570 0.3269590929
C -5.2943364382 -2.7258147687 -0.5932538783
O -6.1276215523 -3.8056825724 -0.5851947955
C -5.9064516934 -4.7916145675 0.4305392286
C -5.5264936719 -1.7994201235 -1.6167156230
O -6.5380292350 -2.0276316417 -2.5063996647
C -4.7265951689 -0.6546210660 -1.6974947796
O -5.0582712820 0.1805075070 -2.7305106841
C -4.2788261935 1.3719277211 -2.8911876461
C -3.7027251076 -0.4312472075 -0.7798392047
C -2.0582470112 0.2991647071 1.4980808320
C -3.0015801178 0.9755468441 2.2998616510
C -2.8152577807 2.3168416713 2.5190564270
C -1.7432929876 3.0086395321 1.9612421051
O -1.8284006989 4.3388998115 2.2890960015
C -2.8531637078 4.4097196272 3.3019334127
O -3.6113975713 3.1834864464 3.2217932377
C -0.8191330347 2.3814059100 1.1668350196
C -0.9782497507 0.9959801176 0.9364503259
C 0.1012161367 0.3184224800 0.1104670616
O 1.2764394945 0.1421811445 0.9553302495
C 2.4194244463 0.7913111476 0.5109644262
O 2.9250168210 0.0831300883 -0.6334491862
C 4.1009325375 0.7127657937 -1.1381781951
C 4.5589284404 0.0206002181 -2.4104966969
O 5.8010247916 0.6149673493 -2.8146381041
C 6.8011873078 0.4931151217 -1.8100529690
C 8.0674996920 1.1233336456 -2.3233757977
O 6.4113000629 1.1749151823 -0.6159838764
C 5.2099424726 0.5999549427 -0.0951552752
C 4.7864014758 1.3324428031 1.1608930638
O 5.7049768777 1.1625071247 2.2423104963
C 3.4467573971 0.7748194811 1.6424145947
O 2.9241175794 1.5622442638 2.7073867371
H -1.1536311755 -0.8532129105 -1.1399469036
H 0.8131151692 -1.9552013944 -1.9960739981
H 1.5516729292 -2.0514638614 -0.3653743000
H -0.3078507532 -1.7862929010 1.6236841989
H -2.6277166394 -1.6495951457 2.1666010724
H -4.0769788435 -3.2164202030 1.1174974510
H -6.6515249896 -5.5679321804 0.2538851312
H -4.9002454846 -5.2200368952 0.3511061230
H -6.0486392465 -4.3657569105 1.4308960570
H -6.5475776255 -1.2889733745 -3.1332649785
H -3.2245258260 1.1270566547 -3.0652339165
H -4.6892480190 1.8788396072 -3.7647020653
H -4.3688658584 2.0191256434 -2.0109970532
H -3.1069261170 0.4714386188 -0.8329406841
H -3.8510177304 0.4451114128 2.7179488005
H -2.3802592885 4.4764495467 4.2911105942
H -3.5104710542 5.2562986351 3.0951634930
H 0.0066699287 2.9291359892 0.7253210869
H 0.3761965488 0.9602218625 -0.7352596750
H 2.2059106308 1.8346990566 0.2132342495
H 3.9079548289 1.7772267793 -1.3514820867
H 3.8516999092 0.1664178244 -3.2306655373
H 4.6868386916 -1.0577177905 -2.2247370315
H 6.9311041768 -0.5780363751 -1.5693961845
H 8.8524731249 1.0430428036 -1.5681886607
H 7.8912275975 2.1785029755 -2.5499427420
H 8.3933967061 0.6097814894 -3.2305062263
H 5.3773693707 -0.4665605782 0.1353706527
H 4.6634468319 2.4024591232 0.9273390151
H 6.5060890755 1.6589601719 2.0326942349
H 3.5885337496 -0.2717131049 1.9581586964
H 3.6290389419 1.6485339920 3.3637033673
