110
CONF227
C -3.2587355302 1.2499103902 -1.5692430872
N -4.1633066308 1.3809454808 -2.7305321502
C -3.9342677288 0.2056852553 -3.5958928229
C -3.3292394650 -0.8623439715 -2.6624660952
C -3.3701937165 -0.2458100731 -1.2414152342
C -2.2746039261 -0.7528762271 -0.3433641729
C -0.9031310783 -0.6573793654 -0.4800431716
C -0.0462017897 -1.2072162298 0.4777579629
C -0.6342381566 -1.8869658550 1.5670550283
O 0.2574290787 -2.3954115064 2.4587085712
C -0.2321769614 -3.0385942616 3.6311682737
C -2.0173119218 -2.0127167046 1.7159289540
C -2.8305793626 -1.4178427210 0.7482881820
N -4.2005170177 -1.3822993210 0.7151967237
C -4.9879318366 -2.4186237805 1.3596443013
C -4.6841191820 -0.6366517574 -0.4523355364
C -5.5830639961 0.5871933820 -0.0791553271
O -6.3236085378 1.0080082041 -1.2221571698
C -4.7576186688 1.7449180378 0.4935697790
O -5.6254319511 2.8051980860 0.8752863698
C -3.6031932721 2.2505011069 -0.4518136367
C -2.3775442542 2.5058044204 0.4746784363
C -1.1312654268 3.1024517604 -0.1736429239
C -3.9696671774 3.5717625463 -1.0879549672
C -4.1332620753 3.7731864654 -2.3937724886
C -4.0607737131 2.6684290988 -3.4002651084
C -6.6034469894 0.1758483347 1.0083748846
N -7.8417183017 -0.1170115264 0.5240769075
O -6.2947564159 0.0642767258 2.1831789057
C 1.4724791544 -1.0363920818 0.4371745689
C 1.9552950918 -0.5319387507 -0.9644711075
C 3.4795432959 -0.4263744924 -0.9699030046
C 4.0307139480 1.0012667456 -0.8674925547
N 5.3912829636 0.9508939491 -0.3680518487
C 6.2438666589 0.1337007520 -1.2249769322
C 5.7212755119 -1.2572461205 -1.6865219453
O 5.9093489129 -2.2437814838 -0.6527640567
C 6.5945504027 -1.7366737674 -2.8519647622
C 6.2187955115 -3.1100975635 -3.4026478157
C 4.2314276347 -1.1636687846 -2.0746381060
C 5.5009284827 0.8765229026 1.0894364442
C 4.5682747111 -0.0512659503 1.9385522960
C 3.1321589618 0.3923960295 2.0571087249
C 1.9244494416 -0.0231064855 1.4975998676
N 0.9228541138 0.8320144133 1.9410905104
C 1.4268668469 1.7718642482 2.7943544815
C 0.7883231981 2.7959849831 3.4905855802
C 1.5770858750 3.6028604853 4.2975250098
C 2.9613809800 3.3838739937 4.4092498513
C 3.5865390226 2.3583405448 3.7163599634
C 2.8175491613 1.5283432391 2.8871611870
C 2.1342584314 -2.4156307138 0.6229298186
O 3.0656616689 -2.6876322109 1.3438451695
O 1.5795514552 -3.3091171208 -0.2241195528
C 2.1960275361 -4.6134157139 -0.2063857022
H -2.2196739270 1.4428808298 -1.8937359940
H -3.2357580747 0.4497462241 -4.4117672449
H -4.8808227416 -0.1074135101 -4.0522100130
H -2.2857954417 -1.0541284885 -2.9288063468
H -3.8559616091 -1.8186845190 -2.7011642811
H -0.4897857921 -0.1435797528 -1.3408612699
H 0.6540974326 -3.3300221286 4.1957045151
H -0.8407318675 -2.3511250977 4.2315810917
H -0.8194686291 -3.9310386610 3.3799248306
H -2.4498391193 -2.5269980051 2.5636692656
H -4.5567341058 -3.4123835896 1.1625492642
H -5.0523343953 -2.2565229416 2.4406791941
H -6.0081538828 -2.3981865437 0.9714395614
H -5.3186198615 -1.2830950139 -1.0775838637
H -5.6373181055 1.2013629144 -1.9304261835
H -4.3158528392 1.3784901793 1.4254865046
H -6.1654816983 3.0018941253 0.0959199814
H -2.7338202814 3.1790649601 1.2651186228
H -2.1271768136 1.5563055222 0.9633690316
H -0.6372061699 2.3986206947 -0.8507148080
H -0.3981353279 3.3701113183 0.5939631590
H -1.3680117188 4.0070712808 -0.7423572328
H -4.0475051342 4.4128755617 -0.4043085083
H -4.3291758347 4.7723989526 -2.7735999409
H -3.1171738703 2.7459055978 -3.9801397915
H -4.8795166946 2.7603725989 -4.1275065116
H -8.5762082247 -0.2536926876 1.1995019921
H -8.0717027810 0.1888738120 -0.4083222619
H 1.5070652522 0.4513707970 -1.1493794859
H 1.5885976833 -1.2223817594 -1.7314673563
H 3.8024955675 -0.8986285201 -0.0457947064
H 3.4209004668 1.6150477898 -0.1953903056
H 4.0176595685 1.4773315340 -1.8632909918
H 6.4266699370 0.7178089507 -2.1433059234
H 7.2131839628 -0.0188406052 -0.7375682252
H 5.2177868764 -2.1581552901 0.0142351618
H 6.5457175308 -0.9870235519 -3.6507036916
H 7.6335775197 -1.7570181277 -2.4982112411
H 6.9357733684 -3.4252141207 -4.1668128523
H 5.2272606509 -3.1028971796 -3.8664051806
H 6.2176540501 -3.8567144109 -2.6045805084
H 3.8357329059 -2.1778621215 -2.2128957234
H 4.1286336834 -0.6323826356 -3.0318631786
H 6.5363512042 0.6026153183 1.3225929813
H 5.3453891797 1.8954085978 1.4752046658
H 4.9896874921 -0.0011374099 2.9527185336
H 4.6543044500 -1.1000313624 1.6605194034
H -0.0494083443 0.6937818395 1.7211584557
H -0.2833433937 2.9534128182 3.4092980020
H 1.1179725897 4.4126548556 4.8550354753
H 3.5487921089 4.0306250835 5.0528911108
H 4.6559486826 2.2040482881 3.8217783357
H 2.1185843454 -5.0559027873 0.7901836760
H 1.6433905610 -5.2046112933 -0.9364167369
H 3.2514770278 -4.5385043855 -0.4848275473
