33
CONF53
C 5.1686102859 0.6557085911 0.1585873922
C 5.3775239588 2.1711378749 0.2764763376
O 6.7520051404 2.4928224286 0.0458222426
C 3.9034858866 0.0906906567 0.7660012796
C 2.5829882763 0.4277699314 0.0106471230
C 1.2595766477 0.0216446295 0.7513462730
C 0.0111343001 -0.0359112615 -0.1998361496
C -1.3568065889 0.0025988389 0.5726382307
C -2.5636783695 -0.5089108044 -0.2916779234
C -3.9571226686 -0.0705059866 0.2765854148
C -5.1593688959 -0.9022228638 -0.2821814319
F -5.0929030321 -0.9773131143 -1.6188188504
F -5.1654586885 -2.1380853854 0.2276435249
F -6.3010228452 -0.2917632505 0.0615975286
F -4.1710401661 1.2238853154 -0.0408574584
F -3.9583412494 -0.2031516307 1.6231352376
F -2.4450924073 -0.0194781933 -1.5469452440
F -2.5210030571 -1.8594805360 -0.3400834181
F -1.6048083189 1.2780985212 0.9471154613
F -1.2640933071 -0.7731854458 1.6756873002
F 0.0507981064 1.0195650012 -1.0441245516
F 0.0694892149 -1.1802030843 -0.9192051080
F 1.0169272452 0.9334726211 1.7236225187
F 1.4105999815 -1.1938325500 1.3215016124
F 2.5372613750 1.7681690308 -0.1981745953
F 2.6189196523 -0.1943849076 -1.1960306724
F 4.0054089556 -1.2775673203 0.8017993307
F 3.7478240165 0.5148984594 2.0625781303
H 5.2202827322 0.3336647189 -0.8870987871
H 5.9804872378 0.1570726924 0.7006997539
H 5.1533923917 2.5057358052 1.2930211820
H 4.7347989810 2.7191006267 -0.4197483220
H 6.9356265882 2.3542118523 -0.8920359343
