66
CONF21
C 3.9691782590 1.1060170167 -3.3412053333
C 2.5509728222 0.5742456734 -3.3865782308
O 1.7896112316 1.0065427227 -2.2255477224
C 1.9605979265 0.2897547620 -1.0868811187
O 2.6674992119 -0.7102100216 -1.0415365759
C 1.2257481542 0.7949663217 0.0707977231
C 0.6379541329 2.0222498001 0.1374480486
N 0.0661330893 2.4257449290 1.3251481913
C 0.1290922598 1.7307542897 2.5084392635
C 0.6980777145 0.4914425600 2.5225934773
C 1.1850575569 -0.1759927727 1.2446704231
C 0.3629161568 -1.4241738833 0.9122053972
C 1.0027507889 -2.6661754658 0.8732502191
C 0.3160653391 -3.8333017211 0.5655753789
C -1.0469766440 -3.7752161951 0.2803510697
C -1.6982907571 -2.5501987036 0.3013664482
C -1.0096796594 -1.3684789302 0.6119330937
C -1.7938940983 -0.1195941725 0.6750198254
C -2.3152478456 0.5655648809 -0.3518494431
C -2.0557811771 0.2608066941 -1.7740311938
O -1.3386347770 -0.6289276996 -2.1939402783
O -2.7248916415 1.1469589815 -2.5455365977
C -2.6719969659 1.0780830445 -4.0287953864
C -1.2438306732 1.2895671276 -4.5181051712
C -3.2639059224 -0.2434404679 -4.5051169097
C -3.5584027314 2.2458946259 -4.4439265587
C 0.8267141814 -0.2389872237 3.7817891968
O 0.2927458692 0.0416401518 4.8481259352
O 1.6478985826 -1.3129854217 3.6408689158
C 1.7727226474 -2.1959734637 4.7867328888
C 0.6150012746 -3.1729668070 4.8417248697
C -0.4480244622 2.4636172977 3.6813614004
C 0.5277205346 3.0489759397 -0.9506502957
H 4.5151515784 0.6938772851 -2.4889484440
H 3.9691219564 2.1977839706 -3.2709336196
H 4.4933420616 0.8199770649 -4.2586891220
H 2.5287453822 -0.5174950061 -3.4420647849
H 1.9990794175 0.9898320331 -4.2331133270
H -0.3527306683 3.3426616575 1.3485919487
H 2.2060804069 -0.5351374655 1.4074699060
H 2.0654922713 -2.7063801994 1.0913643662
H 0.8406736414 -4.7837401243 0.5480128469
H -1.5989688750 -4.6783000251 0.0388787533
H -2.7583773868 -2.4919399932 0.0731102916
H -2.0008500541 0.2586771141 1.6759220722
H -2.9285927840 1.4392634105 -0.1552288403
H -0.8309740302 2.2144265669 -4.1030028509
H -0.5971774920 0.4547137693 -4.2468216653
H -1.2594640095 1.3829931830 -5.6085635673
H -4.2578828855 -0.3920535991 -4.0718085216
H -2.6263464775 -1.0880697895 -4.2412276649
H -3.3667160374 -0.2082229372 -5.5940494807
H -4.5741303494 2.1144187731 -4.0597645771
H -3.1543388246 3.1885090819 -4.0631599526
H -3.6017864358 2.2998932340 -5.5351698468
H 1.8403193290 -1.5966539379 5.6987426907
H 2.7212536626 -2.7130810353 4.6236582395
H 0.5590866022 -3.7552608683 3.9171494645
H 0.7600440362 -3.8631868068 5.6788306197
H -0.3325424181 -2.6476002644 4.9871643576
H 0.2668721692 2.5055222570 4.5049958058
H -1.3324969740 1.9449699671 4.0600958767
H -0.7277703486 3.4816515121 3.3988657420
H 1.5059039057 3.2841345183 -1.3728252506
H -0.0928408343 2.6737483203 -1.7682944113
H 0.0797174594 3.9682448690 -0.5658478072
