56
CONF17
C 2.9632401490 3.0909599199 -2.2987259633
C 3.0010892228 2.2640254179 -1.0257031935
O 1.9052065194 2.5786035234 -0.1506490537
C 0.6593260017 2.1300648041 -0.4777257483
C 0.3812634503 1.1611074823 -1.4425534125
C -0.9356031015 0.7679472935 -1.6650913168
C -2.0107662585 1.3203273380 -0.9661981416
C -1.7051931740 2.2878326219 -0.0023739358
C -0.3994372905 2.6880182742 0.2417856773
C -3.4377310967 0.8197779722 -1.1975098018
C -3.6853081786 0.4980763392 -2.6816266552
C -4.4932935128 1.8399324302 -0.7482246626
C -3.6257209671 -0.4871121556 -0.4102969449
O -3.5605908309 -0.2130995962 0.9852714601
C -3.3721576905 -1.3820526734 1.7665675767
C -1.9658413436 -1.9353468718 1.6887844132
C -0.8861685555 -1.0612576118 1.5670901988
C 0.4055355248 -1.5685987898 1.5541647598
C 0.6496886130 -2.9368570033 1.6618476296
C -0.4330420925 -3.8012214155 1.7677493402
C -1.7354211084 -3.3078062804 1.7762911716
O 1.4371118402 -0.6472719398 1.5253341892
C 2.5381438323 -0.8830510509 0.7377734222
C 3.7470270882 -0.3563618425 1.1864600714
C 4.8864521932 -0.4948279564 0.4029102888
C 4.8272419466 -1.1563272144 -0.8215065245
C 3.6117863019 -1.6771326251 -1.2594031132
C 2.4612607666 -1.5434405033 -0.4885736471
H 2.0638469369 2.8837683091 -2.8851104499
H 3.8367194818 2.8590766710 -2.9168089508
H 2.9794644503 4.1580028281 -2.0599518759
H 3.8901494335 2.5013996797 -0.4353528256
H 3.0316900579 1.1881315584 -1.2345681677
H 1.1733646962 0.6996569756 -2.0192446200
H -1.1103213610 0.0027260630 -2.4140617993
H -2.4969369644 2.7417905738 0.5811841328
H -0.1774738641 3.4382934230 0.9933588752
H -3.4497277677 1.3671408582 -3.3027839258
H -3.0834668501 -0.3446678167 -3.0336751992
H -4.7368885119 0.2376519638 -2.8389158964
H -5.4933658984 1.4612808117 -0.9838701265
H -4.3543635909 2.7915677018 -1.2710027507
H -4.4578975884 2.0188920368 0.3273797271
H -2.8365187018 -1.1990806184 -0.6996430040
H -4.6057244769 -0.9362997736 -0.6523500812
H -4.0975725881 -2.1640285919 1.4870132869
H -3.5901958968 -1.0829743527 2.7992926685
H -1.0434953486 0.0081401386 1.4720554322
H 1.6679338734 -3.3100646052 1.6611287194
H -0.2572965259 -4.8694491073 1.8470011310
H -2.5749173812 -3.9928276282 1.8551509825
H 3.7708118763 0.1626400787 2.1383169227
H 5.8277561829 -0.0841862153 0.7545033194
H 5.7192880258 -1.2663954393 -1.4285230472
H 3.5528290649 -2.1885418847 -2.2152247497
H 1.5107474488 -1.9369405488 -0.8310403900
