15
CONF3
N 0.0700560823 1.5467770042 0.2207419492
C -0.0849491460 0.1056170276 0.2733090244
C 0.2978612642 -0.5671319352 -1.0526634652
S 1.9045510765 0.0036584451 -1.7552945603
S 3.2079533794 -0.1825256162 -0.1534053002
C -1.5039803032 -0.3463605604 0.6175283618
O -1.5408768171 -1.6656128210 0.9399807520
O -2.4827888808 0.3600473629 0.6072211747
H -0.3609572642 1.9604649286 1.0408758762
H -0.4419912699 1.9184035256 -0.5735038709
H 0.5825843515 -0.2986239639 1.0478372412
H -0.4318856244 -0.3137827825 -1.8347870935
H 0.3068049760 -1.6522152604 -0.9278808846
H 2.9446216249 1.0151785187 0.4187921897
H -2.4670037612 -1.8838938783 1.1312489071
