94
CONF12
C 8.6457235067 -1.1427365960 -5.3997043349
C 7.7961646240 -1.5998638160 -4.2327543707
C 6.6545110930 -2.5389042703 -4.6578334686
C 5.7665111100 -2.9023707538 -3.5153646070
C 4.5522432323 -2.3516815826 -3.3159616047
C 3.7073028994 -2.6205954992 -2.1870760739
C 2.4955872979 -2.0338416181 -1.9987334947
C 1.6461435138 -2.2865565537 -0.8773038588
C 0.4374913773 -1.6936380180 -0.6891411016
C -0.3998223434 -1.9319981411 0.4520634107
C -1.5645401145 -1.2957534513 0.6797961729
C -2.3445402464 -1.4387980991 1.9504028905
C -1.9597100494 -0.3695415391 2.9753629444
C -2.1264217326 1.0661865365 2.4609953362
C -3.0619029551 1.9134658377 3.3593704923
C -3.0228124739 3.3746414500 2.9291731472
C -1.5809887392 3.8680892301 2.8627999701
C -0.7623985807 2.9859629359 1.9212861819
O -0.8130684996 1.6334430873 2.4044068829
C 0.7272502280 3.3327982506 1.9073694110
C 1.5404058127 2.4666011830 0.9437433584
C 3.0427055092 2.6468230389 1.1402444225
C 3.8353812652 1.9262103328 0.0855329423
C 5.2567144727 2.2454471837 -0.1578199744
O 4.2391464593 2.6966568547 -1.0669062241
C 6.1843371588 1.2158744702 -0.6446444257
C 6.2300404973 0.7879941617 -1.9105618963
C 7.1400152795 -0.2981599913 -2.3097680766
O 7.7813275382 -0.9975309921 -1.5441818241
O 7.1692151700 -0.4127604007 -3.6570986797
O 1.1645536397 2.7228164170 -0.4333879488
O -1.3423921228 3.0927298890 0.6329876916
O -3.7901243191 4.1065942571 3.9000875381
C -4.4423038785 1.2953245991 3.2440066941
O -4.8975904868 0.5343792026 4.0991792889
O -5.0483383358 1.5764731530 2.1123568468
O -3.7656125989 -1.2914757540 1.7321753351
C -4.4633505196 -2.4784327054 1.4213273056
C -5.9340938986 -2.2654627577 1.7903720263
C -6.6443754807 -1.2618259746 0.8252468394
C -5.7822056359 -0.9559381731 -0.3990088679
C -5.1512374994 -2.2461852856 -0.9275370128
O -4.3120076476 -2.8813907667 0.0744051278
C -4.2917051301 -2.0266509710 -2.1556804215
O -6.5551441356 -0.3026791388 -1.4110962861
N -7.0087803610 -0.0012335064 1.5042802220
O -6.0881973898 -1.9482037992 3.1616700891
H 8.0317426859 -0.6282982374 -6.1454926732
H 9.1128751087 -2.0110812774 -5.8732041261
H 9.4341173216 -0.4656386047 -5.0601940530
H 8.4089712912 -2.0719851833 -3.4604159496
H 7.1215325437 -3.4324528706 -5.0912273266
H 6.0773158511 -2.0416368365 -5.4463788315
H 6.1612106634 -3.6022164120 -2.7782871891
H 4.1747294433 -1.6396679061 -4.0517524005
H 4.0727065726 -3.3307647634 -1.4444852149
H 2.1379230829 -1.3215195478 -2.7434987826
H 2.0033713394 -2.9969784954 -0.1306741431
H 0.0787821006 -0.9775921260 -1.4295067299
H -0.0398125652 -2.6555764986 1.1855963129
H -1.9348998085 -0.5684967629 -0.0412965651
H -2.1514162296 -2.4253360926 2.3972719368
H -2.5633082036 -0.5311152330 3.8740989377
H -0.9106044767 -0.5170791349 3.2475183177
H -2.5556718837 1.0702786589 1.4513495963
H -2.7283643852 1.8314289174 4.4005255289
H -3.4878989475 3.4685401762 1.9408516180
H -1.1346833289 3.8281456260 3.8628241791
H -1.5535478041 4.9040553335 2.5077007204
H 0.8454160221 4.3897887553 1.6380563076
H 1.1174919118 3.2031818119 2.9225214732
H 1.2850206940 1.4116145674 1.0945810347
H 3.3122210726 2.2514063980 2.1276705184
H 3.3105756908 3.7113416003 1.1256992524
H 3.5085021236 0.9141684233 -0.1642492353
H 5.6952535435 3.0294255108 0.4638547292
H 6.8623956340 0.7926195006 0.0948489871
H 5.5910618757 1.2196898780 -2.6737728139
H 1.4625543979 3.6154245987 -0.6618843212
H -0.6484277040 2.8632628511 -0.0141367266
H -3.8585445145 5.0192168367 3.5918891310
H -5.8711721445 0.9104140439 1.9306600633
H -4.0530785462 -3.3092740995 2.0124435968
H -6.4142306768 -3.2402557384 1.6550273197
H -7.5541284151 -1.7603009524 0.4549648278
H -4.9907392344 -0.2471429440 -0.1323013111
H -5.9686170985 -2.9488074681 -1.1668406447
H -4.8997646162 -1.6614087672 -2.9867285647
H -3.5057137325 -1.2950737284 -1.9419414070
H -3.8231932309 -2.9685863821 -2.4544722999
H -7.2516797506 -0.9118363791 -1.6952007636
H -7.5748472351 0.5490480470 0.8621493858
H -7.5983926343 -0.2081065048 2.3066560412
H -5.5921404942 -1.1291255255 3.3601040776
