119
CONF30
C -6.9385944387 6.5362927045 -1.4420840825
C -7.7797468728 5.4413658200 -2.1008946354
C -9.2327259810 5.5309957773 -1.6327466156
C -7.1665575889 4.0455270878 -1.8508575835
C -8.0444804875 2.9569695172 -2.4983884080
O -8.0170164807 2.8257391968 -3.7196289992
N -8.8304327094 2.1722102937 -1.7162136693
C -9.8052284070 1.2815631942 -2.3864967494
C -10.7736505682 0.9215856299 -1.2768058207
C -10.9096481031 -0.4997141954 -0.8064565010
C -12.0393804398 0.1739996693 -1.5490575021
C -10.6745225263 2.0517631918 -0.2725967833
C -9.1645360200 2.3350762055 -0.2851431138
C -8.4385787618 1.3501385832 0.5944206950
N -8.9334138469 0.8391268277 1.7109830290
C -7.9530306250 0.0210723435 2.1985154301
C -6.8415602923 0.0287603131 1.3716677736
N -7.1806105168 0.8980823061 0.3498592661
C -5.5774164256 -0.6789644546 1.4525316831
C -4.4801228284 -0.3311705377 0.6382249933
C -3.3129332149 -1.0489831872 0.7621564612
C -3.1647364266 -2.1050822948 1.6718087898
C -4.2399415725 -2.4510123832 2.4832814002
C -5.4303908138 -1.7442276003 2.3608856073
C -1.8100732754 -2.6518460349 1.5518789613
C -1.1126167680 -1.9294927779 0.5714699643
C -2.0219286491 -0.8680154962 0.0007032276
F -2.1978792436 -1.0161713545 -1.3628777475
F -1.4988919483 0.4015962530 0.1544314224
C 0.1880910417 -2.2207743791 0.2291980690
C 0.8458790471 -3.2787988706 0.8842759150
C 0.1466098789 -3.9982428987 1.8654975971
C -1.1702929885 -3.6977651299 2.2054120789
C 2.2396130804 -3.6201666499 0.5430769122
C 3.1623844410 -2.6031592567 0.2787254221
C 4.4554442682 -2.9836893829 -0.0505814736
C 4.8597002087 -4.3386197401 -0.1253413098
C 3.9328786320 -5.3469046017 0.1388060606
C 2.6403133833 -4.9746115156 0.4698231971
N 6.1989913761 -4.4229166578 -0.4667024076
C 6.5913769982 -3.1746021197 -0.5906242976
N 5.5894336455 -2.2638697517 -0.3567240560
C 7.9668808003 -2.7192898532 -0.9756179935
C 8.9704508814 -3.8652636617 -1.1758080130
C 10.2555847406 -3.2708157691 -1.7957715630
C 10.8956503624 -2.4720624016 -0.6158831673
C 9.8639021434 -2.6830250851 0.5081160217
C 9.4149313040 -4.1290082732 0.2740363380
N 8.6320000747 -1.9519862949 0.1201947607
C 8.3450332165 -0.6514373874 0.3290758596
O 7.4129322119 -0.0786484411 -0.2540804823
C 9.1677122338 0.0799844422 1.3898312513
C 8.6811283171 -0.3101412153 2.8147797243
C 9.5825900118 0.3369182292 3.8653953409
C 7.2144336506 0.0551697540 3.0395190237
N 9.0640129832 1.5033654174 1.1413572261
C 10.1851775517 2.2702963814 1.0257080912
O 11.3173074751 1.9233766321 1.3074063453
O 9.8543944145 3.5102186951 0.5695450363
C 10.9696354627 4.4120641800 0.4562856524
N -5.8434471529 4.0083522723 -2.4671223734
C -5.0694917967 2.9027657880 -2.3085193864
O -5.2799951218 2.0221019074 -1.4820597567
O -4.0131566062 2.9083713637 -3.1411235771
C -3.1157659750 1.7840534430 -2.9821301341
H -7.3527853875 7.5225271818 -1.6730544875
H -6.9436619924 6.4179324754 -0.3524049576
H -5.8986798382 6.5157337366 -1.7762690435
H -7.7749727178 5.5830416556 -3.1917268692
H -9.6501988293 6.5038888789 -1.9075989638
H -9.8607333710 4.7589643358 -2.0877582222
H -9.3044487212 5.4437856952 -0.5425517728
H -7.0354146054 3.8805685734 -0.7752256423
H -10.2859896133 1.8402175322 -3.1997471746
H -9.3064517992 0.4121447079 -2.8281048017
H -10.3427574392 -1.2615946645 -1.3324330960
H -11.0202195240 -0.6639756602 0.2597951002
H -12.9233057735 0.4550166888 -0.9850841922
H -12.2334742197 -0.1383647144 -2.5707544569
H -11.2098525882 2.9395790380 -0.6324434812
H -11.0290570283 1.7839350841 0.7234272758
H -8.9462437649 3.3563426908 0.0401771525
H -8.0877148434 -0.5266325448 3.1204956402
H -6.5869151056 1.1978477356 -0.4218172445
H -4.5399390869 0.4863762584 -0.0710183861
H -4.1657960949 -3.2671345536 3.1950382911
H -6.2763833199 -2.0294423878 2.9769664524
H 0.6911074141 -1.6656852872 -0.5563626691
H 0.6600327411 -4.7959545701 2.3929005987
H -1.6764639309 -4.2708417475 2.9759241749
H 2.8776412571 -1.5593832103 0.3611627289
H 4.2205975100 -6.3905503577 0.0724166084
H 1.8955520687 -5.7440172494 0.6448233458
H 5.7391468236 -1.2618408177 -0.3745657389
H 7.8903959967 -2.0728342398 -1.8602115795
H 8.5384272873 -4.7099518698 -1.7102158925
H 10.9170941186 -4.0740356668 -2.1320105959
H 10.0399073291 -2.6384934618 -2.6618720696
H 11.8648175658 -2.8872789537 -0.3223491804
H 11.0411106617 -1.4120786554 -0.8413899364
H 10.1962098602 -2.4293699378 1.5146146390
H 10.2494597765 -4.8320818413 0.3392032751
H 8.5993040838 -4.4470686785 0.9262524081
H 10.2274463199 -0.1855082589 1.3047679365
H 8.7778372183 -1.4016513175 2.8920002348
H 9.2796462653 0.0249551353 4.8696555617
H 10.6327274768 0.0670731772 3.7181759007
H 9.5093703388 1.4278959086 3.8136397003
H 7.0682384582 1.1361588352 2.9441079351
H 6.9048234892 -0.2358733271 4.0475827725
H 6.5525803253 -0.4447092983 2.3258062741
H 8.2256186410 1.8129487073 0.6684714848
H 11.7102592872 4.0240143902 -0.2482201983
H 10.5471812179 5.3479382263 0.0898624413
H 11.4452104768 4.5607504003 1.4295080716
H -5.7629839110 4.4622658956 -3.3663762362
H -2.3546286411 1.9176802477 -3.7498987765
H -2.6634898600 1.7931271296 -1.9876534443
H -3.6508576720 0.8433353820 -3.1282049495
