47
CONF17
C -2.7003724523 -3.0158043839 1.6097254486
C -1.8449832928 -1.8056287697 1.3088091566
C -0.4096695749 -1.7504965170 1.7774331155
C -1.4789580046 -0.9383212487 2.5167538769
C -1.5214455189 0.5324455709 2.4826655289
O -2.2576504290 1.2184704119 3.1624394739
O -0.6404036031 1.0659617239 1.5892805546
C -0.6705239183 2.5049950197 1.4349601066
C -1.9303437043 2.9022331445 0.7921924315
N -2.9000466049 3.2318195877 0.2580927759
C 0.5176469353 2.8809028675 0.5805279701
C 0.7220569326 2.1911997066 -0.6130004617
C 1.8421401000 2.4856693461 -1.3806887205
C 2.7277575070 3.4921248361 -0.9921786686
C 2.4914925331 4.1882923997 0.1864589960
C 1.3937909019 3.8806509421 0.9905832761
O 2.1115863791 1.8401094645 -2.5665498719
C 1.5418343108 0.5843212981 -2.7675937484
C 1.8125449432 -0.4624999382 -1.8900619288
C 1.2620913736 -1.7142543544 -2.1455834357
C 0.4617827282 -1.9167519861 -3.2699608774
C 0.2132190811 -0.8604630813 -4.1427752072
C 0.7500247683 0.4018487295 -3.8932364616
C 0.2327522367 -2.8633899462 2.4797154940
C 1.5319360805 -3.1586235345 2.4250841617
Cl 2.2168030113 -4.5129708578 3.2874152073
Cl 2.7050328180 -2.2521266026 1.5077298682
C -2.1649011253 -1.1601898318 -0.0206112925
H -3.7578428808 -2.7453617644 1.5250047862
H -2.5351627619 -3.4127606039 2.6131125192
H -2.4929330454 -3.8077938122 0.8816262582
H 0.2417346665 -1.1562237454 1.1452019389
H -1.8250779956 -1.3306398148 3.4677295993
H -0.6216973080 2.9901167562 2.4157920755
H 0.0271388008 1.4222628552 -0.9293536055
H 3.5905950613 3.7112977395 -1.6122183028
H 3.1828035383 4.9662926420 0.4931626247
H 1.2274479115 4.4074018343 1.9242999600
H 2.4378131825 -0.2923949805 -1.0192809647
H 1.4642522114 -2.5351081730 -1.4643029979
H 0.0353858495 -2.8954454820 -3.4640947572
H -0.4071541761 -1.0123324549 -5.0203812192
H 0.5588225729 1.2392043057 -4.5561727984
H -0.3803547675 -3.5068047890 3.1033269979
H -1.4840955399 -0.3428135815 -0.2621147191
H -3.1908847536 -0.7756602606 -0.0194839780
H -2.0859834912 -1.9127599741 -0.8124334797
