46
CONF45
C -0.5264069810 1.4852796887 -3.1358065853
C -0.3432550203 1.7485558039 -1.6437679099
C -0.7562892572 3.1673056696 -1.2503724918
C -0.5893637433 3.4489550410 0.2266896095
O -1.5201933302 2.5813731188 0.9366560701
C -1.3135047295 2.4416591631 2.2501998792
O -0.4710256721 3.0228317840 2.8959288464
C -2.3167747567 1.4776101910 2.8867445795
C -3.5037930734 2.2639890995 3.4232182838
O -2.8378245222 0.5176644854 1.9725218023
C -1.9671396952 -0.3766413774 1.4124800023
C -2.5202336363 -1.2310606285 0.4543754449
C -1.7325285028 -2.1779921674 -0.1774836225
C -0.3854811700 -2.2770062742 0.1522962764
C 0.1767822164 -1.4407380128 1.1027043861
C -0.6134664906 -0.4804360149 1.7335501378
O 0.3337225273 -3.3013005500 -0.4663372335
C 1.6720219779 -3.1367841106 -0.6629692469
C 2.1971702166 -2.0352258259 -1.3493559204
C 3.5468305555 -1.9106353579 -1.5994605950
C 4.4121545396 -2.9274725357 -1.1704863416
C 3.9025602483 -4.0473841712 -0.5013439836
C 2.5428313164 -4.1418722674 -0.2488211949
C 5.8076537502 -2.8199923554 -1.4261577238
N 6.9445588127 -2.7319974336 -1.6286403737
F 1.3576293003 -1.0834410086 -1.7906044818
H -0.2304012039 0.4655778664 -3.3964611830
H -1.5737608350 1.6153405645 -3.4293366641
H 0.0753845711 2.1753872101 -3.7376032037
H -0.9289859028 1.0252775829 -1.0649950599
H 0.7057835699 1.5892543342 -1.3626853928
H -0.1465743343 3.8985083438 -1.7978405547
H -1.7995804835 3.3500991800 -1.5376746935
H 0.4249708060 3.2275149385 0.5756668301
H -0.8248513110 4.4867182082 0.4861386026
H -1.7920068210 0.9791005101 3.7133323317
H -3.1569466143 3.0155700541 4.1362079659
H -4.0269704339 2.7596115157 2.6013021553
H -4.1966978960 1.5854573564 3.9262405531
H -3.5723908675 -1.1308604637 0.2123566683
H -2.1488070525 -2.8431975377 -0.9256627510
H 1.2264208534 -1.5294708067 1.3629855530
H -0.1515693805 0.1667308878 2.4697023719
H 3.9166042085 -1.0452777825 -2.1366536352
H 4.5772938677 -4.8306111967 -0.1771420685
H 2.1264506968 -4.9959748197 0.2733872581
