44
CONF52
C -3.8812695232 -2.9166442798 0.3604245838
C -2.5626984953 -2.3149689346 -0.0619750109
C -2.2458638714 -2.3957565200 -1.5460229404
O -1.3643950271 -1.2861885113 -1.7437744767
C -1.6997725368 -0.2902357521 -0.7856885487
O -2.6059432616 -0.8837776350 0.1345336585
C -2.4441657489 0.9018530628 -1.4295473399
N -3.6360458174 0.4729633409 -2.1287566322
C -4.8539296350 0.1774808794 -1.6164862107
N -5.6438888380 -0.3130685420 -2.5568022098
C -4.8330617316 -0.3032763076 -3.6537506371
N -3.6073554024 0.1599879303 -3.4474904993
C -0.4336965036 0.1915064146 -0.0814854867
C -0.4033024151 0.2211303085 1.3153241477
C 0.7108576909 0.6434569054 2.0232643930
C 1.8351135379 1.0682148453 1.3240945376
C 1.8410156643 1.0760401503 -0.0672317917
C 0.7114654724 0.6389493680 -0.7502219335
Cl 0.8004592430 0.6882714269 -2.5018736519
O 2.8894519377 1.5357207048 2.0729317960
C 4.1713195629 1.4775085553 1.5551157581
C 4.6885506138 0.3019218835 1.0178210059
C 6.0071052786 0.2714170695 0.5817370111
C 6.7918673027 1.4141023929 0.6994966496
C 6.2813985638 2.5856574894 1.2451949683
C 4.9583761223 2.6162733148 1.6716019677
Cl 8.4561530649 1.3729168773 0.1522376321
H -4.7001032922 -2.4904275079 -0.2266448619
H -4.0698540340 -2.7316909240 1.4210480831
H -3.8623931984 -3.9993114405 0.2016232912
H -1.7283524032 -2.7297095807 0.5258965061
H -1.7113083322 -3.3048421889 -1.8333941066
H -3.1569951474 -2.2879190420 -2.1534467980
H -2.7244011506 1.5981143255 -0.6326959814
H -1.7920450658 1.4084620311 -2.1417771261
H -5.1034105128 0.3374118763 -0.5766091106
H -5.1542328399 -0.6350704911 -4.6323655722
H -1.2836011232 -0.1150536716 1.8501839510
H 0.7216239273 0.6528797614 3.1070100056
H 2.7071142165 1.4218831947 -0.6177540286
H 4.0651321744 -0.5823920760 0.9419495544
H 6.4258084636 -0.6357182873 0.1621417361
H 6.9077644424 3.4656974651 1.3308208696
H 4.5315076538 3.5162303144 2.0998204360
