46
CONF333
C -5.2136308264 4.6230377981 -0.5541446616
C -4.1209439086 3.7772018818 -1.2047938979
C -4.0964774547 2.3496305794 -0.6553234698
C -3.0068489827 1.5311042286 -1.3099992122
O -3.0626573611 0.1856566228 -0.7354701070
C -2.1718441919 -0.6941048663 -1.2020321091
O -1.3184427651 -0.4515979646 -2.0282936650
C -2.4181951328 -2.0718136664 -0.5861608964
C -3.5009351911 -2.7941829572 -1.3752613182
O -1.2392446944 -2.8714490166 -0.6721865170
C -0.1580619875 -2.5203613982 0.0892016043
C -0.1337366207 -1.4521728819 0.9892603388
C 1.0260791345 -1.1968698843 1.7198289556
C 2.1349196655 -2.0055621626 1.5442438716
C 2.1235618199 -3.0719496114 0.6537158464
C 0.9725376226 -3.3280991607 -0.0755251113
O 3.2766100002 -1.7816576593 2.3285308140
C 4.2492799076 -0.9851694173 1.8182360637
C 5.3872488646 -0.8098938892 2.6189840063
C 6.4475260502 -0.0296193225 2.2276161712
C 6.3804227154 0.6113739706 0.9788778210
C 5.2536258315 0.4516321933 0.1626800514
C 4.1957473173 -0.3416899333 0.5812458362
C 7.4624542094 1.4224529786 0.5481834574
N 8.3457925264 2.0853808373 0.1951056041
F 5.4277470108 -1.4374351989 3.8114934694
H -6.2021496483 4.1848551493 -0.7293901322
H -5.0629492835 4.6884106899 0.5288422636
H -5.2189745270 5.6405293908 -0.9564732479
H -4.2751530519 3.7451499798 -2.2908830751
H -3.1425801341 4.2466022984 -1.0405847896
H -3.9321163348 2.3720363109 0.4290556260
H -5.0666779729 1.8684617836 -0.8304171510
H -3.1518239429 1.4485441235 -2.3922473522
H -2.0118327971 1.9450306706 -1.1162817684
H -2.7287362540 -1.9546830623 0.4595739627
H -4.4311906530 -2.2228502340 -1.3367153358
H -3.1943777402 -2.9113793076 -2.4183999345
H -3.6732994816 -3.7800298331 -0.9370320978
H -0.9945489987 -0.8123843704 1.1422455263
H 1.0628597566 -0.3705956512 2.4220743660
H 3.0069337264 -3.6909632807 0.5357780436
H 0.9326381597 -4.1548206774 -0.7767495519
H 7.3090092003 0.0789458498 2.8765049573
H 5.2081617291 0.9495819514 -0.7989262334
H 3.3242749696 -0.4642839449 -0.0509643303
