46
CONF69
C -3.0625552676 3.8312453287 0.9513587439
C -3.8853013455 2.8746188806 0.0906495343
C -3.1478576324 1.5601775084 -0.1685049845
C -3.9678873368 0.6288123395 -1.0402095320
O -3.2162239551 -0.5960694740 -1.3162580157
C -3.2810887754 -1.5650439934 -0.4014779185
O -3.9899306838 -1.5602344017 0.5848523027
C -2.3881338035 -2.7543305450 -0.7568110082
C -3.1864987703 -3.7715077600 -1.5582720670
O -1.2633364804 -2.3820942877 -1.5590670114
C -0.3391423758 -1.5306104574 -1.0177493801
C 0.6628192759 -1.1001778371 -1.8943937311
C 1.6487006798 -0.2312657577 -1.4520820146
C 1.6225133515 0.2044141749 -0.1328854937
C 0.6402123810 -0.2123080441 0.7476508253
C -0.3510320429 -1.0880413267 0.3071381696
O 2.5768672487 1.1366405731 0.3012137285
C 3.7615524437 0.6614596629 0.7611953500
C 4.7033662164 1.6239001103 1.1532253719
C 5.9408964282 1.2837805221 1.6423954648
C 6.2657158710 -0.0791769835 1.7501783912
C 5.3406969896 -1.0577726908 1.3653712622
C 4.0973174400 -0.6881347832 0.8745136444
C 7.5369932233 -0.4609568350 2.2525831507
N 8.5741164533 -0.7779185293 2.6628794480
F 4.3668084458 2.9246057023 1.0420129352
H -3.6012284922 4.7667575938 1.1300515437
H -2.8337760494 3.3814579436 1.9236415344
H -2.1128189463 4.0753954883 0.4631635335
H -4.8426092116 2.6623432839 0.5834750295
H -4.1250439291 3.3518798681 -0.8682906862
H -2.1886672864 1.7613865674 -0.6623077057
H -2.9261212292 1.0651859371 0.7851114094
H -4.9205914898 0.3648578373 -0.5732166567
H -4.1496286828 1.0597891779 -2.0272645932
H -2.0525636784 -3.1992752838 0.1881615211
H -4.0573239852 -4.0921359331 -0.9815952895
H -3.5219366745 -3.3335479962 -2.5022705696
H -2.5607485604 -4.6426301818 -1.7661817491
H 0.6524657825 -1.4505877544 -2.9210012566
H 2.4303320743 0.1114696152 -2.1221766717
H 0.6438799170 0.1430934364 1.7727933581
H -1.1118858265 -1.4046386507 1.0101037134
H 6.6394413306 2.0594173346 1.9346978782
H 5.5968016707 -2.1073658459 1.4520152042
H 3.3824355737 -1.4468636767 0.5786059897
