39
CONF239
C 9.0428380084 2.2489874944 -0.3949966521
C 8.2841195428 0.9538666605 -0.1152074148
C 6.7747118132 1.1672679907 -0.0014814326
C 6.0156769664 -0.1404055604 0.2381348830
C 4.5372627712 0.0170644941 0.6263008804
C 3.8518683634 -1.3409722096 0.8400861174
C 4.4681636043 -2.1844725963 1.9551485430
C 3.8134533618 0.8254753012 -0.4437351049
O 2.4256171455 1.0476854725 -0.0589024933
C 1.4770276698 0.4118681853 -0.7578130370
O 1.6582099826 -0.3948819193 -1.6399903671
C 0.1068378390 0.7562787027 -0.2537778051
C -0.7025815790 -0.3289541806 0.0629224880
C -1.9806874047 -0.1375836621 0.5609196400
C -2.4875799773 1.1549258882 0.7319220712
C -1.6897703351 2.2561350110 0.3743816834
C -0.3915880396 2.0538559745 -0.1151508006
Br 0.6551145567 3.5265292888 -0.6988139917
Br -2.3750515544 4.0117611122 0.5517024010
Br -4.2314893256 1.4036481186 1.4148149265
Br -2.9916227436 -1.6857054752 0.9890526970
H 10.1206475923 2.0752716387 -0.4653589042
H 8.7143038362 2.6999743702 -1.3374796685
H 8.8728598057 2.9824938126 0.4005570729
H 8.4855889576 0.2267374951 -0.9129221075
H 8.6541862654 0.4999330609 0.8133552900
H 6.5679428051 1.8678472747 0.8204891254
H 6.4215128906 1.6546820940 -0.9194745151
H 6.5225205025 -0.6876839771 1.0410961846
H 6.0855287840 -0.7766431317 -0.6563776432
H 4.4867016819 0.5836546453 1.5685968628
H 3.8634736407 -1.8984661318 -0.1058471523
H 2.7967362954 -1.1644616944 1.0800806655
H 5.4727333907 -2.5340273180 1.7011947579
H 4.5359569718 -1.6135308999 2.8880484740
H 3.8557632317 -3.0694209608 2.1507190530
H 3.8390779275 0.3140114660 -1.4111210249
H 4.2322928875 1.8295955397 -0.5414140192
H -0.3177099741 -1.3305473550 -0.0851407078
