23
CONF7
C -1.7095372808 -0.2476109024 1.5834870456
C -1.2753003641 0.0399680946 0.1508044377
C -1.9954365588 -0.8864137535 -0.8330715462
C 0.2327696403 -0.0225707244 -0.0712637506
C 1.0984475870 -0.6679045588 0.8117432101
C 2.4673666195 -0.7171815424 0.5578710835
C 2.9932386276 -0.1137295632 -0.5785796027
C 2.1391807016 0.5375397278 -1.4648586089
C 0.7722923756 0.5782410768 -1.2147488683
O -1.7593455874 1.3440438233 -0.2574645083
O -1.1804751376 2.3569427073 0.6150688197
H -1.1847478198 0.3971052145 2.2908832531
H -2.7824944078 -0.0574251488 1.6676604123
H -1.5260962378 -1.2932428203 1.8461823867
H -1.6886446634 -1.9185131619 -0.6450496958
H -3.0782691914 -0.8049308220 -0.7025117191
H -1.7394344524 -0.6305287247 -1.8640871052
H 0.7121280764 -1.1355961334 1.7102543421
H 3.1243472309 -1.2251322452 1.2569433466
H 4.0603679540 -0.1479927212 -0.7723904957
H 2.5383526854 1.0133979777 -2.3552072977
H 0.1078389100 1.0843979816 -1.9095516886
H -0.3265481144 2.5171365204 0.1778865551
