60
CONF1
C 0.7641110570 -1.2005845769 1.0290042983
C -0.6041361074 -1.8839688728 1.0652948642
C -1.8177599529 -0.9341692434 0.8482676513
C -1.4699993560 0.5292889877 0.8778966056
C -0.3098137301 0.9937343806 1.4470550430
O -0.0582341236 2.2736443892 1.6689045243
C 0.7600880757 0.0344470404 1.9236713738
O 0.4435599995 -0.3430851162 3.2548036840
C 2.1286848092 0.7282276391 1.9062806524
O 2.5925211727 1.1141663504 2.9839169511
C 2.7443409723 0.9109879623 0.6195156183
C 3.8676031919 1.8333426661 0.4046363672
O 4.3145804515 2.0371205379 -0.7618915208
N 4.4143281194 2.4597567402 1.4563145967
C 5.5463583814 3.3574670583 1.2610695559
O 6.7262223663 2.6899441333 0.8669146382
C 2.2339050138 0.2328644009 -0.4859144506
O 2.6929999681 0.4627750935 -1.6885902747
C 1.2097413220 -0.8773510737 -0.4096395998
N 1.6810861409 -2.1111312901 -1.0528189936
C 3.0477706159 -2.4994627514 -0.7143121263
C 1.4495357280 -2.1962433771 -2.4928918155
C -2.4861702975 1.4663285804 0.5207128583
O -2.3531667959 2.7085195070 0.7940477541
C -3.6670075057 1.0149727267 -0.2127745712
C -4.6762109818 1.9709755993 -0.5213176177
O -4.6545354178 3.2209858694 -0.0531403684
C -5.7386862604 1.6177841073 -1.3555519874
C -5.7398673272 0.3818958950 -1.9598805403
C -4.7297725688 -0.5429270452 -1.6879815772
Cl -4.7809621480 -1.9964879597 -2.7026845947
C -3.7216144372 -0.2981000407 -0.7574712067
C -2.6788019198 -1.3612910538 -0.3672784060
C -3.3559581205 -2.6830575389 0.0501558465
O -1.7796581250 -1.5467708916 -1.4735754630
H 1.4938249530 -1.8927743519 1.4644875133
H -0.5901699346 -2.6617357149 0.2986740247
H -0.7071954232 -2.3723221475 2.0365231280
H -2.4890225883 -1.0783191849 1.7068504036
H -0.8983735219 2.7589167526 1.3904595169
H 1.0233573178 0.2065444427 3.8136218176
H 4.0849438954 2.1879212853 2.3776398850
H 5.2590596922 4.1183731785 0.5236116179
H 5.7568865924 3.8373527084 2.2192246444
H 6.5796286458 2.3836051232 -0.0378144518
H 3.4417874755 1.1798707196 -1.5537165321
H 0.3356578121 -0.5355865563 -0.9792126549
H 3.1967457204 -3.5483359062 -0.9926617381
H 3.8140224827 -1.8983740936 -1.2358596932
H 3.2207396921 -2.4138277104 0.3629610240
H 1.5680238769 -3.2414275109 -2.8031963417
H 2.1447136360 -1.5798677191 -3.0849969819
H 0.4255811926 -1.8865263680 -2.7148346714
H -3.7715781090 3.3278141970 0.3979200073
H -6.5105093270 2.3504021204 -1.5605018911
H -6.5188427623 0.1201047392 -2.6669241010
H -4.1842644473 -2.4776681560 0.7349571090
H -3.7443916148 -3.2446713256 -0.7951583646
H -2.6318914656 -3.3165520027 0.5665845047
H -2.2938157253 -1.8875148498 -2.2174582461
