82
CONF15
C -5.8601778065 -1.3229362201 -1.7077556135
C -4.6601120933 -0.6663017329 -2.3327600428
C -4.1268356745 -1.1262281687 -3.4710331291
C -4.0546764714 0.5145896373 -1.6180262555
C -5.0351363935 1.5858102215 -1.1081135698
C -4.2119272766 2.3258552230 -0.0528697684
C -3.4897937041 1.2039251007 0.7277562670
C -3.2464948798 0.0942062001 -0.3500427170
C -1.7575205395 -0.1869716253 -0.6296247212
C -1.0437288115 0.9743775084 -1.3730501200
C 0.3432049650 1.3013040293 -0.8249362073
C 1.1625003891 0.0217196163 -0.6658742647
C 2.7129740779 0.3237437203 -0.5020537212
C 3.0017372542 1.5715696330 0.3637958290
C 4.5025004874 1.8354384472 0.5524827407
C 5.2573496126 0.6538505489 1.1589819443
C 5.0014954353 -0.6639722225 0.3808512174
C 3.4712896377 -0.8959054997 0.1116100923
C 2.7731695479 -1.4448539126 1.3932294353
C 1.3367998558 -0.9850975822 1.6321806723
C 0.4971795691 -0.9657764784 0.3541388129
C -1.0246853360 -0.5979342436 0.6782004951
C -1.1942921292 0.5415328198 1.7449078825
C -2.1788790249 1.6680974226 1.3745184514
C -1.7082291594 -1.8588310938 1.2544064746
C 0.5622488355 -2.3746578914 -0.2800936648
C 5.8269897838 -0.5970345404 -0.9247791113
C 5.5971337375 -1.8586324845 1.1497741310
O 4.9844964883 0.5593914505 2.5762835610
C 3.1726656881 0.6099277769 -1.9525026813
C -4.4367729135 0.6330632532 1.8030973139
O -4.7984925077 1.5691572231 2.8283931224
H -6.7459247679 -0.6840825720 -1.8058796176
H -5.7128242656 -1.4898469213 -0.6342963297
H -6.0786763072 -2.2816338747 -2.1845649772
H -3.2699866687 -0.6359097915 -3.9268602166
H -4.5289325408 -2.0020424843 -3.9738269848
H -3.3699382996 1.0065694571 -2.3169917099
H -5.3921710508 2.2369650175 -1.9128790648
H -5.9134168876 1.1231470053 -0.6451061839
H -3.4682089957 2.9622438321 -0.5478846695
H -4.8138311556 2.9839858925 0.5845425213
H -3.6841163191 -0.8415198135 0.0179508519
H -1.7343744412 -1.0638246114 -1.2900384666
H -0.9319662619 0.6999024647 -2.4301489211
H -1.6569226623 1.8806082514 -1.3645422245
H 0.2724043261 1.8338669017 0.1272742736
H 0.8345158215 1.9922612070 -1.5184832641
H 1.0934621989 -0.4852474513 -1.6398948911
H 2.5166365096 1.4783499465 1.3435146474
H 2.5579960062 2.4586534313 -0.1005390722
H 4.9611687591 2.0959100669 -0.4060325626
H 4.6464448672 2.7067716360 1.2027824422
H 6.3369126254 0.8529547774 1.1108817095
H 3.4310824674 -1.6891807482 -0.6474507001
H 2.8030677496 -2.5391799976 1.3506139738
H 3.3471512904 -1.1757229385 2.2802273145
H 1.3528746080 0.0102589423 2.0813624423
H 0.8802169255 -1.6446452556 2.3808400992
H -1.5101409794 0.0845033281 2.6907268171
H -0.2398003445 1.0237816180 1.9658606533
H -2.4106315840 2.2426065674 2.2793985951
H -1.6856312085 2.3687227478 0.6952874285
H -2.6748676585 -1.6176660249 1.6977770294
H -1.0991848322 -2.2987698016 2.0498236463
H -1.8791537101 -2.6228153908 0.4904196978
H 0.3492257990 -3.1665410239 0.4434504680
H 1.5594514934 -2.5601233838 -0.6851930264
H -0.1424084303 -2.4697317387 -1.1127937022
H 6.8911753550 -0.6993411503 -0.6860451601
H 5.7081889764 0.3329335685 -1.4771708994
H 5.5507904228 -1.4218609780 -1.5898195351
H 6.6715115273 -1.7003519102 1.2962686437
H 5.4698251505 -2.7761244265 0.5626660886
H 5.1519135313 -2.0151448231 2.1315733086
H 4.0531018826 0.7668259712 2.7190804361
H 3.3161474948 -0.3252276124 -2.5041168587
H 4.0947119582 1.1849623701 -2.0180847768
H 2.4079674083 1.1899482900 -2.4777615931
H -5.3401949161 0.2242000452 1.3270548941
H -3.9432308711 -0.1887682490 2.3300078578
H -5.4073924442 2.2119437976 2.4459275113
