65
CONF917
C -2.1793112271 3.4924028123 -3.2282069539
C -1.7391549498 2.6144712474 -2.0592848123
C -2.6883913664 2.7067552850 -0.8423359315
C -4.1055401483 2.2257081536 -1.1599650280
C -2.0456205478 1.9455161336 0.2959803456
O -1.3146959020 2.4469998363 1.1307880191
O -2.3260818480 0.6291227946 0.2422453340
C -1.7017856243 -0.2345823118 1.2419265186
C -2.5721123041 -0.2921287383 2.4858117876
C -1.8984359627 -1.1503418401 3.5675268757
C -1.3210224195 -2.4011525769 2.9751254747
C -1.1560882921 -2.6243986731 1.6570839331
C -1.5584830952 -1.6067892066 0.6049546576
C -0.5705065020 -1.6412488038 -0.5809209198
C -0.6203204847 -3.0522927192 -1.2021216219
C -0.3554878916 -4.0897098341 -0.1451103297
C -0.5888597033 -3.8681666768 1.1596051016
C 0.2956045864 -3.2193109439 -2.4176829737
C 0.8498267131 -1.2056901568 -0.1521613423
C 1.2135157457 0.1776366974 -0.6965408743
C 2.5000491040 0.7300599759 -0.1116715767
C 3.7439484269 -0.0583672434 -0.4657183882
C 4.9742753986 0.6909960671 0.0176547061
C 5.0436721103 2.0270422770 -0.6974894868
C 3.7368924638 2.7783130063 -0.7835338358
O 3.6880926580 3.9577308869 -1.0731370556
O 2.5774010372 2.1216162010 -0.5976041147
O 6.1938784488 0.0031215566 -0.2819419222
C -0.8254086950 -0.3700535766 4.3481800430
H -2.2904415884 4.5356334707 -2.9128228236
H -1.4345616580 3.4592447815 -4.0290168105
H -3.1333025007 3.1603794779 -3.6476007698
H -1.6790480967 1.5657713999 -2.3782376852
H -0.7321284185 2.9108443238 -1.7407615792
H -2.7172515008 3.7521193365 -0.5139896591
H -4.5923171922 2.9193511624 -1.8500921592
H -4.0887944901 1.2342677036 -1.6218725143
H -4.7144574128 2.1720221890 -0.2525561667
H -0.7215783236 0.1857827049 1.4856206763
H -2.7529913085 0.7194119953 2.8639269163
H -3.5398532044 -0.7290433350 2.2103120622
H -2.6696076140 -1.4453574430 4.2932254804
H -1.0043835733 -3.1725205943 3.6773598446
H -2.5479051557 -1.8953039054 0.2160927604
H -0.9361745870 -0.9379225664 -1.3399313975
H -1.6520489884 -3.1956116589 -1.5634698352
H 0.0452589843 -5.0497268122 -0.4661942699
H -0.3608939683 -4.6379505747 1.8946193579
H 1.3539453933 -3.1752242496 -2.1424637546
H 0.1197343004 -4.1892651393 -2.8940105869
H 0.1008857820 -2.4352027707 -3.1568914631
H 0.9240588025 -1.1974049903 0.9439043309
H 1.5877995785 -1.9378971917 -0.4908977438
H 1.3030350165 0.1386013257 -1.7901209754
H 0.4125722366 0.8894236283 -0.4670144918
H 2.4056931645 0.8074177483 0.9804053431
H 3.8031554317 -0.2128231386 -1.5514304935
H 3.6836309044 -1.0385855129 0.0192896332
H 4.8939967618 0.8545280766 1.1039144562
H 5.3520640140 1.8481340583 -1.7374171736
H 5.7856201977 2.6963871027 -0.2547270982
H 6.2120886705 -0.8073005801 0.2428361978
H -0.3550575311 -1.0092089115 5.1022363691
H -1.2725300674 0.4902419399 4.8568873216
H -0.0380626502 -0.0064737122 3.6794328761
