70
CONF78
C -2.8827705458 -0.2854258694 -0.9795767240
C -4.2861254227 0.3641853327 -0.9237580939
C -5.2724576820 -0.6335426451 -0.4101777244
C -6.6231479381 -0.8299847635 -0.5650842106
N -7.0054542328 -1.9617693993 0.1504357987
C -5.9029382108 -2.5137172673 0.7622323377
C -5.7053290857 -3.6377619612 1.5684653150
C -4.4000424224 -3.8824860949 1.9883257279
C -3.3105527766 -3.0539781533 1.6336870593
C -3.5079950892 -1.9296563987 0.8398214282
C -4.8140083624 -1.6878763934 0.4191119973
C -2.4794764028 -0.9125477426 0.3892093605
C -1.0678532498 -1.4924836715 0.3444552350
C -0.0715279680 -0.4345953478 -0.1309078876
C -0.5344992254 0.1009611841 -1.4903127394
N -1.8637186986 0.7108068496 -1.3649865978
C -2.1990074885 1.4733192903 -2.5861621074
C -2.4659755344 0.6467791591 -3.8166054387
C -3.5572114568 0.7606509161 -4.5712117462
C 1.3161447850 -1.0260197045 -0.2909747767
O 1.5520037089 -1.8361301311 -1.1873153472
N 2.3379161628 -0.5657545342 0.5175325314
C 3.7171864476 -0.9692488497 0.1635998775
C 4.2469183854 -0.3088646646 -1.1116013044
C 4.1539238837 1.2134592154 -1.1335878279
N 4.7648231104 1.8665965433 0.0350802009
C 4.5124147805 3.3106430131 -0.0071948513
C 6.2034513417 1.6047330880 0.1315674459
C 2.0764139944 0.0537551339 1.7918103765
O 1.1454059455 -0.3310915867 2.5005832864
N 2.9380372017 1.0357727063 2.0994692791
C 2.9930380579 1.6505799563 3.4204243353
C 4.3586573728 1.4442025685 4.0687216785
H -2.9227650067 -1.1134842683 -1.7182551195
H -4.2311212215 1.2441501083 -0.2660754092
H -4.5827386351 0.7170220316 -1.9142536555
H -7.3599410258 -0.2689499196 -1.1234622606
H -7.9437468995 -2.3243368888 0.1900645701
H -6.5197722178 -4.2953810011 1.8551811662
H -4.2083537468 -4.7499009951 2.6130833720
H -2.3215349139 -3.3144360221 1.9966021680
H -2.4822244689 -0.0847499108 1.1178521411
H -0.7765346512 -1.8524228739 1.3351170605
H -1.0421474086 -2.3462377463 -0.3461663969
H -0.0613706427 0.3952612419 0.5789115978
H 0.1632548142 0.8699010112 -1.8444886441
H -0.5146727643 -0.7300492114 -2.2160496242
H -3.0561079730 2.1254434744 -2.3886591679
H -1.3438022569 2.1350279412 -2.7803634192
H -1.6991924910 -0.0750890533 -4.0960939691
H -4.3429894272 1.4717090342 -4.3220880115
H -3.6999876211 0.1574618388 -5.4631730778
H 3.7300969020 -2.0565852278 0.0346338284
H 4.3548702041 -0.7310873889 1.0175304015
H 5.2832534906 -0.6395060967 -1.2452417736
H 3.6894230670 -0.6854228504 -1.9743491719
H 3.0954218171 1.5058686738 -1.1487230123
H 4.6052382119 1.5863821393 -2.0723257236
H 3.4329341275 3.4946953059 -0.0313881527
H 4.9664153905 3.7882013088 -0.8936731875
H 4.9264461381 3.7823852892 0.8900501338
H 6.7456064000 1.9345764153 -0.7730523234
H 6.6101870356 2.1428865349 0.9931925823
H 6.3924562220 0.5380792626 0.2791820058
H 3.6590577760 1.3160891234 1.4040090648
H 2.7807316532 2.7234279824 3.3246272947
H 2.2001990365 1.2108939582 4.0305562304
H 5.1544700692 1.8662764390 3.4456852548
H 4.5610465533 0.3784164908 4.2128621345
H 4.3916495907 1.9399737807 5.0436658990
