45
CONF4
C -1.7153909442 -0.1435650210 -0.0308932368
C -2.0392285912 0.8786944889 -1.1244519300
C -2.1333161959 2.2917809983 -0.5452527850
C -0.8465439495 2.6594153964 0.1983777892
C -0.5297418857 1.6201462793 1.2748001642
C -0.3987762988 0.1974636155 0.7031264249
C -0.2270171383 -0.8169234394 1.8600878550
C -0.2635498043 -2.2623184456 1.3510046170
N -1.4449061415 -2.5739098266 0.5339655185
C -2.6451118251 -2.7699096984 1.3398322589
C -1.6356186787 -1.5879899551 -0.5473098731
C -0.5213953422 -1.7008465037 -1.5948633103
C 0.7200306146 -0.8909341285 -1.2991415616
C 0.7827864402 0.0351313735 -0.2516714122
C 1.9723941998 0.7457964110 -0.0349091496
C 3.0783305129 0.5588470255 -0.8579028964
O 4.2682523964 1.2195873101 -0.7188987277
C 4.3732220893 2.1644192565 0.3382499109
C 3.0131492199 -0.3544790501 -1.9130963317
C 1.8444813761 -1.0628443785 -2.1160179144
H -2.5207410524 -0.0887177053 0.7170964422
H -2.9798660242 0.6016811387 -1.6185278612
H -1.2549649537 0.8621724455 -1.8912024635
H -2.3331188036 3.0172860799 -1.3423687656
H -2.9814390832 2.3437242053 0.1523319868
H -0.9407858277 3.6526047839 0.6530655175
H -0.0148073681 2.7109620060 -0.5161442253
H -1.3514053481 1.6021217314 2.0044901194
H 0.3655786158 1.8984616086 1.8429267850
H 0.7233110480 -0.6285459495 2.3765967323
H -1.0311992886 -0.6510905485 2.5898849854
H -0.2335189835 -2.9637184505 2.1930398580
H 0.6329154888 -2.4535955921 0.7483298677
H -3.4820394056 -3.0356661882 0.6843200585
H -2.9589320462 -1.8999595251 1.9458485637
H -2.4817212212 -3.6078395367 2.0267981027
H -2.5857029578 -1.8470655763 -1.0350531042
H -0.2605806074 -2.7598654272 -1.7092045267
H -0.9220301079 -1.3785499704 -2.5653846189
H 2.0223509052 1.4513709255 0.7832230559
H 3.6398387579 2.9746592185 0.2263856788
H 5.3809051243 2.5773487100 0.2714848845
H 4.2405593870 1.6864989886 1.3183519065
H 3.8809105146 -0.4914837813 -2.5488908383
H 1.7944318872 -1.7803550186 -2.9315729481
