22
CONF283
C 1.9969243963 -0.7223159574 -0.7101802706
C 1.3380571682 -0.2324636508 0.5766585349
C -0.0040271621 0.4692415206 0.3577886557
C -1.0277139125 -0.3965685402 -0.3958201183
C -2.3889885351 0.2707744969 -0.4937938242
O -2.8910820333 0.4193193654 0.8436601449
O -1.1440737850 -1.6834319608 0.2224493791
O 0.2658064586 1.6698410816 -0.3898847692
O 2.2361214254 0.6575146335 1.2612273532
O 3.2854101973 -1.2819950067 -0.4345498168
H 2.0789132501 0.1063085625 -1.4298440777
H 1.4005262807 -1.5202524332 -1.1627239450
H 1.1893001301 -1.0837769948 1.2476269654
H -0.4060072531 0.7273335625 1.3467000848
H -0.6645109651 -0.5657297511 -1.4164622507
H -2.2968233257 1.2444050397 -0.9949204163
H -3.0533885069 -0.3694026729 -1.0887702816
H -3.8341939455 0.6117461019 0.7897289493
H -1.6813529619 -1.5561992085 1.0179372564
H -0.3164369756 2.3673071297 -0.0670685639
H 2.1785822519 1.5051454382 0.7934634424
H 3.7389580044 -0.6368007559 0.1267776686
