21
CONF14
F -0.4353457528 0.0520098649 -1.9956438905
C 0.0139930173 -0.3184097196 -0.7746570160
F -0.0678603717 -1.6733475617 -0.6766757527
C 1.5222490757 0.0784978374 -0.6623250021
F 1.5893557832 1.4442321648 -0.7020654447
F 2.0836626807 -0.3742982266 -1.8381492200
C 2.2963243578 -0.4580403221 0.5198619301
C 3.8129906799 -0.2717211462 0.3607623022
O 4.4284742622 -1.2793404357 -0.4283768003
C -0.9412379691 0.3112751794 0.2852290411
F -1.0864549964 1.6262325345 0.0227273799
F -0.4022240844 0.1687690107 1.5255105697
C -2.3690078157 -0.3256076615 0.3388499006
F -2.9167254172 -0.3730597602 -0.8814327893
F -3.1437083543 0.4289073299 1.1317003890
F -2.3204550097 -1.5631942729 0.8456957848
H 1.9525258572 0.0765498527 1.4089279669
H 2.0745789865 -1.5208959174 0.6519539176
H 4.2672537732 -0.3554117703 1.3520043066
H 4.0341925341 0.7366338110 -0.0195337182
H 4.1342926907 -1.1703300360 -1.3389463883
