74
CONF255
C -0.4910342381 -0.5856819899 0.8131463697
C 0.3062412452 -1.5935499981 1.6272978885
O -0.4325277858 -1.6660802298 2.8978976331
C -1.1573018628 -0.5331844299 3.0870469804
O -1.7847598214 -0.3501985601 4.1047959585
C -0.9667894154 0.3718974124 1.8947789159
C -2.1180962096 1.2562993769 1.4107426931
C -3.4410055550 0.5131608327 1.2618449791
C -4.3211138664 0.4725139414 2.3448008430
C -5.5258670237 -0.2275129862 2.2521936331
O -6.4499052307 -0.3272010599 3.2515142535
C -6.1394206379 0.3169367869 4.4938556188
C -5.8574198871 -0.8899006425 1.0646087912
O -7.0416626116 -1.5677983896 0.9868029263
C -4.9775442780 -0.8315420388 -0.0216763508
O -5.4199750288 -1.5036068715 -1.1286358557
C -4.5730122174 -1.4982109334 -2.2858887554
C -3.7763662018 -0.1319052880 0.0690866608
C -1.6844731137 1.9006912278 0.1000897016
C -2.4063270101 3.0411175918 -0.3118478899
C -2.0770761817 3.6113683957 -1.5154514306
C -1.0709770002 3.0888998324 -2.3226641241
O -0.9538302794 3.8324638550 -3.4670662661
C -1.9212052399 4.8998549353 -3.3548092157
O -2.6365383146 4.7070892195 -2.1130480860
C -0.3573523257 1.9787313651 -1.9520506068
C -0.6710088199 1.3742869959 -0.7127119843
C 0.1820509397 0.1865780251 -0.3046384592
O 1.4716333470 0.6953133676 0.1487391730
C 2.5703650956 0.2285296936 -0.5589822939
O 2.8024214495 -1.1388426979 -0.1815168321
C 3.9286000599 -1.6727453095 -0.8735452402
C 4.0787553084 -3.1469801123 -0.5366834387
O 5.2750805234 -3.6311461846 -1.1627315398
C 6.4241569348 -2.9096999599 -0.7315160650
C 7.6316740770 -3.4874548637 -1.4191713772
O 6.3231073763 -1.5298879619 -1.0847057947
C 5.1944461891 -0.9378796349 -0.4336719790
C 5.0736335067 0.5239556425 -0.7972029076
O 6.2104648492 1.2282805834 -0.3055006152
C 3.7819494168 1.0881563805 -0.1857961186
O 3.6066616660 2.4503512749 -0.5695351613
H -1.3650564954 -1.0935750221 0.3860426472
H 0.3315193978 -2.6011815175 1.2113403538
H 1.3174255808 -1.2444877657 1.8470193472
H -0.1259683833 1.0298866369 2.1714898300
H -2.2730471253 2.0537864261 2.1463870872
H -4.0549231892 0.9836093107 3.2606769434
H -5.2216064404 -0.0936498442 4.9312054028
H -6.0328758969 1.3998898207 4.3604771874
H -6.9842436377 0.1098572366 5.1513689844
H -7.0997457981 -1.9547895638 0.1002748890
H -4.4228561307 -0.4766304422 -2.6535501949
H -3.6038441067 -1.9576782818 -2.0601835964
H -5.0962125471 -2.0883965910 -3.0383370842
H -3.1149299186 -0.0651891900 -0.7858757364
H -3.2012361422 3.4447991596 0.3070287120
H -1.3975223877 5.8614834476 -3.3242708826
H -2.6262730315 4.8389738397 -4.1898585488
H 0.4213901996 1.5714152356 -2.5884347246
H 0.3513808032 -0.4614394260 -1.1727536147
H 2.3952837221 0.2661911291 -1.6517622866
H 3.8025487227 -1.5584064561 -1.9628516338
H 3.2473969285 -3.7367074955 -0.9305990226
H 4.1338583363 -3.2758120406 0.5560487948
H 6.4921326143 -2.9820468021 0.3694590616
H 8.5289159200 -2.9515918126 -1.1016358604
H 7.5213428999 -3.3955880585 -2.5033653313
H 7.7370088492 -4.5422649258 -1.1559594946
H 5.3042568349 -1.0364315487 0.6605284021
H 5.0134387410 0.6116246379 -1.8965438478
H 6.0520291916 2.1681474814 -0.4710122133
H 3.8744026516 1.0891447816 0.9070594855
H 3.4873573269 2.4815921418 -1.5301349015
