40
CONF22
C 2.6446020353 4.0421048583 1.7783051968
O 2.6795291813 2.5991491528 1.7273779462
C 3.7873072995 2.0397284366 2.2641388698
O 4.6706585520 2.6595961889 2.8058550776
C 3.7681359791 0.5450207144 2.0658617091
S 4.4466567334 0.1075732348 0.3996756126
C 3.1111871664 0.6752373241 -0.6379255351
C 1.9409860728 -0.0829340813 -0.7131689157
C 0.8432210131 0.3070901934 -1.4856391901
C 0.9903538912 1.4787501356 -2.2407399103
C 2.1354484386 2.2481874056 -2.2062999259
C 3.1929947420 1.8508635583 -1.3920546585
Cl 4.6035147137 2.8753464636 -1.3308803932
F -0.0310135544 1.8805048071 -3.0163150004
N -0.3243382507 -0.4370755890 -1.5969306111
C -0.9534997587 -0.8226060089 -0.5562166071
N -2.0370964816 -1.6793509877 -0.6354482212
N -2.8349103962 -1.6607518014 0.5311486601
C -2.2286999709 -1.1452162732 1.6486080930
O -2.6404396541 -1.2149498096 2.7812728002
S -0.6749048037 -0.3384628104 1.1504067731
C -3.7544284774 -2.7983487060 0.6510913854
C -4.6481863817 -2.8507102195 -0.5817658474
C -3.7923699113 -2.8766562804 -1.8477711253
C -2.8350140325 -1.6916351674 -1.8755509693
H 2.6546000315 4.3847745028 2.8161453123
H 1.7153852968 4.3265394147 1.2849794607
H 3.5074041742 4.4560972111 1.2506018442
H 2.7609344442 0.1329802917 2.1689200922
H 4.4462314002 0.0832620806 2.7860339717
H 1.8929572406 -1.0210747257 -0.1699562858
H 2.1911792316 3.1552755597 -2.7955563800
H -3.1713393892 -3.7268779979 0.7475720554
H -4.3204263544 -2.6414361675 1.5710521921
H -5.2835187641 -3.7401659180 -0.5239209019
H -5.3060058309 -1.9730475651 -0.5899816717
H -3.2150164126 -3.8084867258 -1.8893333296
H -4.4221293739 -2.8397168249 -2.7422788401
H -3.3837856163 -0.7412895300 -1.9631940003
H -2.1261654297 -1.7572884507 -2.7014137497
