47
CONF257
C -7.6952979591 -0.1761056434 2.3515711269
O -6.6571892710 -1.1955820308 2.2035844105
P -5.4233307675 -0.9531614790 1.2234247144
S -4.2377416555 -2.4857682724 1.1469894484
O -6.0114807552 -0.4211240694 -0.1710468008
C -6.5790390500 -1.3637057829 -1.1249335865
O -4.8188318619 0.4308012248 1.8124708215
C -3.6455590370 0.9900723171 1.2913579588
C -2.4421297849 0.7315438426 1.9372691645
C -1.2808980844 1.3311592968 1.4682416021
C -1.3290325413 2.1618042281 0.3448059732
C -2.5466712354 2.4098902473 -0.2914509337
C -3.7171047079 1.8300688734 0.1898424578
S 0.1276887843 3.0078899470 -0.2566851230
C 1.3748220880 1.7261739476 -0.2197529902
C 1.1058402234 0.4251217810 -0.6544451997
C 2.1176419180 -0.5261108991 -0.6632885944
C 3.3957978308 -0.1590948066 -0.2596003563
C 3.6841910398 1.1292653530 0.1670505889
C 2.6620536187 2.0735855520 0.1952284667
O 4.3915923548 -1.1434046988 -0.2284822000
P 5.4831652538 -1.2743619888 -1.4193271851
S 4.8105442846 -1.3783496226 -3.2351655978
O 6.2616938777 -2.5971898928 -0.9880822801
C 6.8882114317 -2.6897328256 0.3303327573
O 6.4260026114 -0.0252467766 -1.0654503020
C 7.5378253001 0.3103835632 -1.9443140872
H -8.4645077258 -0.6346301608 2.9717740360
H -8.1053029747 0.0888437371 1.3741659318
H -7.2817584490 0.7044015671 2.8479874232
H -7.4265376049 -1.8900983230 -0.6770754016
H -6.9141184477 -0.7599035754 -1.9677180585
H -5.8139700679 -2.0750310378 -1.4454910306
H -2.4232815936 0.0816041783 2.8051759531
H -0.3393698490 1.1482716682 1.9752701655
H -2.5850493772 3.0526303775 -1.1648163898
H -4.6699528597 2.0176986363 -0.2917492843
H 0.1090131123 0.1514003941 -0.9835688188
H 1.9252870677 -1.5418409389 -0.9912131653
H 4.6858666562 1.3847835162 0.4929185162
H 2.8690728374 3.0783094300 0.5489870910
H 6.1189526335 -2.7074923110 1.1052903543
H 7.4407324861 -3.6284614161 0.3226381347
H 7.5701212794 -1.8499588364 0.4833060480
H 7.1625098092 0.5680792061 -2.9377919099
H 8.0231426431 1.1713569854 -1.4857721645
H 8.2363854233 -0.5287842651 -2.0054156991
