49
CONF63
C -0.9600214958 1.3114915985 5.0906129587
C -0.9124416141 -0.0742487743 4.9519771309
C -0.6034814642 -0.6501398395 3.7245511137
C -0.3533408960 0.1783325707 2.6301177215
C -0.4153819143 1.5656200690 2.7501744572
C -0.7064474574 2.1262845723 3.9897782196
N -0.0265300974 -0.3791042892 1.3624920698
C 1.1697554523 -0.1592798408 0.7018145952
O 1.9054491917 0.7950252207 0.8791236797
C 1.3976087475 -1.3403552785 -0.2181579659
C 0.1950195250 -2.2306334251 0.0119009605
O -0.1127972867 -3.2355224157 -0.6019836378
N -0.5620525668 -1.6513680241 1.0189151093
C -1.9700096870 -1.8439256994 1.1368910253
C -2.8498891047 -0.7794769011 0.9412684697
C -4.2177300923 -1.0049032991 1.0519072430
C -4.7027026595 -2.2791447024 1.3401372090
C -3.8121618301 -3.3335412411 1.5279657299
C -2.4400845736 -3.1195359531 1.4410164756
C 1.5787313938 -0.9527214656 -1.6927831962
C 0.3662609584 -0.2026794660 -2.2274139385
S 0.5276827541 0.2312443841 -4.0240979844
O -0.7056126062 1.0830477610 -4.3313535522
C 1.9371625713 1.3681112806 -3.8516981773
C 1.7169869578 2.6688828888 -3.4106205240
C 2.8030117283 3.5308907743 -3.2966468573
C 4.0852191714 3.0905236223 -3.6261649670
C 4.2874067143 1.7881227482 -4.0765603332
C 3.2063341108 0.9173190629 -4.2001821992
H -1.1997081681 1.7539492099 6.0518866162
H -1.1100159910 -0.7151941057 5.8051148447
H -0.5557949840 -1.7283310686 3.6184069073
H -0.2414137050 2.1907483175 1.8824884384
H -0.7503910654 3.2060694006 4.0884435869
H 2.3030093696 -1.8554937633 0.1287643141
H -2.4710492917 0.2090048037 0.7051453730
H -4.9065346208 -0.1795706108 0.9033835776
H -5.7713222447 -2.4481567714 1.4224191913
H -4.1830026529 -4.3268792469 1.7589378437
H -1.7371842908 -3.9272596844 1.6088935005
H 2.4766192572 -0.3316527263 -1.7636329881
H 1.7519269113 -1.8671705139 -2.2689309290
H -0.5434852274 -0.8133345238 -2.1880092937
H 0.1896617895 0.7463687906 -1.7066938660
H 0.7110970659 2.9985500758 -3.1686274229
H 2.6489100499 4.5484641590 -2.9518459257
H 4.9280578032 3.7684382116 -3.5371865974
H 5.2840758413 1.4504553880 -4.3417720339
H 3.3505992179 -0.0973201739 -4.5605048812
