32
CONF1
C 2.9785665456 -2.2675946212 -0.2911090075
C 3.6073588138 -1.0471398600 -0.3106447015
C 2.8522117872 0.1436802498 -0.2215267060
C 3.4889919145 1.4047932642 -0.2408200700
C 2.7456731803 2.5559282781 -0.1541799776
C 1.3508641826 2.4913838303 -0.0456208507
C 0.6707081212 1.2797351111 -0.0215358833
C 1.4261000159 0.0719029685 -0.1107620521
C 0.7908040924 -1.2061180546 -0.0920487394
C 1.5843292000 -2.3434761747 -0.1827937224
C -0.6707080779 -1.2797350598 0.0215363573
C -1.3508641060 -2.4913837836 0.0456216208
C -2.7456730992 -2.5559282225 0.1541806116
C -3.4889918781 -1.4047932133 0.2408203568
C -2.8522117855 -0.1436801725 0.2215267906
C -1.4260999960 -0.0719029341 0.1107624426
C -0.7908040975 1.2061181117 0.0920488977
C -1.5843292401 2.3434762418 0.1827931460
C -2.9785666128 2.2675946975 0.2911082157
C -3.6073588606 1.0471399456 0.3106442696
H 3.5565336997 -3.1835737082 -0.3594209789
H 4.6876648349 -0.9770685195 -0.3943692653
H 4.5708239228 1.4441199802 -0.3251866402
H 3.2328039937 3.5255789043 -0.1690674402
H 0.8061717343 3.4247462032 0.0203520248
H 1.1320040444 -3.3271600838 -0.1712533701
H -0.8061716530 -3.4247461649 -0.0203510398
H -3.2328038546 -3.5255788705 0.1690682260
H -4.5708238855 -1.4441199024 0.3251867170
H -1.1320041106 3.3271601468 0.1712523643
H -3.5565338359 3.1835737749 0.3594196650
H -4.6876648900 0.9770686374 0.3943686393
