55
CONF174
C 4.6536214112 -2.3727575773 -3.5933384037
O 4.6981703107 -2.8036681276 -2.2265157297
C 3.6482987985 -2.4695579517 -1.4265034071
C 3.7277423934 -2.9108827049 -0.1006038765
C 2.7036525939 -2.6216547798 0.7860550549
C 1.5820893661 -1.8857185155 0.3843418131
C 1.5132854606 -1.4600884217 -0.9421389582
C 2.5318027245 -1.7422094096 -1.8485832806
C 0.5190102295 -1.5679731378 1.4030922521
S -1.1457987060 -1.9960402056 0.6834243551
C -2.2645777967 -1.0228403342 1.6746211987
C -3.2119577098 -1.6757816021 2.4686062490
C -4.1647695313 -0.9510259813 3.1746301001
C -4.1582736036 0.4406787217 3.1168035242
C -3.2094701934 1.1021411505 2.3474904087
C -2.2657813241 0.3830586627 1.6103227122
N -1.3367198159 1.0954586003 0.8021471033
C -1.8614301089 2.0061634121 -0.2293889598
C -2.1307711671 1.2333517026 -1.5223281547
N -2.6777033565 2.0967427563 -2.5705117642
C -1.6388751554 2.9659485716 -3.1333565772
C -3.2588713074 1.2776775031 -3.6378506751
C 0.0120527139 0.8858524418 0.8453119379
O 0.8011798972 1.4680865040 0.1069273523
C 0.4997530964 -0.1107636663 1.9013092644
O 1.8535886966 0.1939797858 2.2707206140
C 2.0258534354 1.3664331078 2.9350435955
C 3.4733328020 1.6064461079 3.2252978353
O 1.1040540257 2.0973288181 3.2288932121
H 3.7894747684 -2.8029555417 -4.1128671771
H 5.5743147232 -2.7389950972 -4.0481245146
H 4.6191418763 -1.2790850436 -3.6597648734
H 4.5951922542 -3.4816760278 0.2146411722
H 2.7757830525 -2.9688880437 1.8129893132
H 0.6510804001 -0.8990058538 -1.2865533870
H 2.4405555710 -1.3945435854 -2.8700990076
H 0.6789398561 -2.1987555520 2.2831878157
H -3.1980816811 -2.7593566970 2.5195695646
H -4.9003615840 -1.4719579937 3.7784758255
H -4.8837739246 1.0157521527 3.6826485646
H -3.1892545231 2.1866806827 2.3202928159
H -1.1269361774 2.7995664298 -0.3754762835
H -2.7903385795 2.4505189273 0.1344301393
H -1.1983461792 0.7312485333 -1.8482797915
H -2.8638408050 0.4474854960 -1.3017590757
H -1.2272101927 3.6275833738 -2.3664650993
H -2.0747310937 3.5927200366 -3.9176656704
H -0.8058035699 2.3852574955 -3.5740976925
H -4.0636054026 0.6552585621 -3.2335678979
H -3.6800395253 1.9281176536 -4.4113510536
H -2.5123788910 0.6144539147 -4.1157515592
H -0.1306092531 -0.0451176993 2.7931400688
H 4.0058978233 1.7561021066 2.2806348042
H 3.5818104645 2.4892301305 3.8536670799
H 3.9106306402 0.7319775007 3.7142267424
