44
CONF28
C -5.4853128942 -0.1222995380 1.2473421298
N -4.0330903379 -0.2211263637 1.0550026475
C -3.4377557938 1.0829492137 0.6821513319
C -3.8299472024 1.2980770060 -0.8066406246
C -3.9979268058 -0.1428478195 -1.3554643802
C -3.6883209301 -1.0439667263 -0.1267472695
C -2.1939786700 -1.3830995875 -0.0358651295
C -1.3715243055 -0.0999794345 -0.0788909818
C -1.9179495633 0.9647632354 0.8606602631
O 0.0077551409 -0.3677166857 0.3454510233
C 0.8633274243 -0.8295230127 -0.5733059470
O 0.5658597254 -1.0692271488 -1.7314029579
C 2.2549037352 -0.9974955199 0.0095033765
C 3.1457034716 -1.8208810623 -0.9377352152
O 3.4079142169 -1.1732195115 -2.1796604436
C 2.8649908704 0.3442119622 0.3611458292
C 3.6422971300 0.4703938503 1.5150126236
C 4.2548371421 1.6813763420 1.8280648301
C 4.0941541739 2.7831845191 0.9906261973
C 3.3172998477 2.6662156760 -0.1602122739
C 2.7074491325 1.4542592380 -0.4735049269
H -5.8853855389 -1.1145246102 1.4807149242
H -5.6902911709 0.5367227623 2.0974348970
H -6.0324372380 0.2687969979 0.3731710845
H -3.8227058492 1.8717272067 1.3361150747
H -4.7664181958 1.8574480852 -0.8785998553
H -3.0677583096 1.8694704661 -1.3449621363
H -3.3249405450 -0.3579349121 -2.1909565772
H -5.0186957845 -0.3130634717 -1.7077007689
H -4.2745118020 -1.9684451256 -0.1245708225
H -1.9027351886 -2.0427251025 -0.8597884193
H -2.0031772737 -1.9036496955 0.9095655228
H -1.3243412299 0.2830917770 -1.1023621843
H -1.7037158508 0.6832136485 1.8976373886
H -1.4322377531 1.9253601788 0.6560952843
H 4.1139476159 -1.9764737083 -0.4527688755
H 2.6771069488 -2.8024392878 -1.0981933658
H 3.7669925901 -0.3864610967 2.1717079668
H 4.8538640159 1.7648573374 2.7297892951
H 4.5681929440 3.7286355322 1.2352037185
H 3.1845180392 3.5207493658 -0.8167308397
H 2.1033579842 1.3746725200 -1.3731502559
H 2.1455567798 -1.5773331212 0.9347332009
H 2.5474296644 -1.0654026383 -2.6106116904
