31
CONF11
C -1.8284457469 -1.5283997229 0.5305736105
C -2.6459203068 -2.1689789109 -0.3914513983
C -3.2379424122 -1.4168600069 -1.3988304406
C -3.0328677598 -0.0460908007 -1.5040822627
C -2.2036570957 0.5815055279 -0.5841861001
C -1.5884828646 -0.1505619848 0.4399428562
C -0.7138057244 0.5218430683 1.4169542204
N 0.2207900065 1.3793982416 1.2036377507
O 0.3777333141 1.6990174606 -0.1235859180
C 1.6283582617 2.3787197772 -0.3377442453
C 2.7448166704 1.3850381187 -0.6240977549
O 2.9764897412 0.5791620448 0.5243010004
C 3.0485420235 -0.7892312598 0.0822489399
C 2.1417787273 -0.7821139013 -1.1324500314
O 2.4141527611 0.5126419398 -1.7034900748
C -0.8470356391 0.1515319389 2.8818233956
F -2.1423901504 -0.0571205182 3.2130329712
F -0.3624942998 1.0887810883 3.7139775474
F -0.1817477164 -1.0049602185 3.1601140983
Cl -4.2776416566 -2.2179532319 -2.5655212597
H -1.3643633352 -2.1195274260 1.3121721454
H -2.8181776460 -3.2369036175 -0.3240900526
H -3.5137388169 0.5257712386 -2.2893129300
H -2.0514810654 1.6511726079 -0.6558818082
H 1.8782685024 3.0014738570 0.5272191617
H 1.4708851591 3.0075543138 -1.2181635811
H 3.6544352464 1.9403429516 -0.9068910214
H 4.0815348023 -1.0498461806 -0.1852084647
H 2.6942427770 -1.4289473016 0.8936563335
H 1.0841479266 -0.8648544135 -0.8481105524
H 2.3940172110 -1.5416044947 -1.8756032536
