49
CONF11
C -0.0141835813 -1.4892392364 4.1086756691
C -0.9517428132 -2.4128349512 3.6524719071
C -1.4807286829 -2.3034860395 2.3699931384
C -1.0408400755 -1.2756699327 1.5385675219
C -0.0997360175 -0.3456181739 1.9809436494
C 0.4041371576 -0.4556006749 3.2724561104
N -1.5680229497 -1.2049051384 0.2169648623
C -1.3210339494 -2.1697785379 -0.7479062205
O -1.0137942734 -3.3263542608 -0.5189979487
C -1.4856329388 -1.5082718640 -2.1017160560
C -1.7193464654 -0.0497069048 -1.7751360900
O -1.9386766962 0.8621295173 -2.5545182845
N -1.6863534680 0.0727431557 -0.3981779133
C -2.3167631104 1.1259206475 0.3226590012
C -1.8606672380 2.4279333491 0.1262031750
C -2.4826411211 3.4731644232 0.8017086229
C -3.5296528685 3.2169083832 1.6842184049
C -3.9637797518 1.9077156108 1.8844594175
C -3.3658246462 0.8544245045 1.2009225994
C -0.3339884207 -1.7716551026 -3.0860346401
C 0.9261692241 -0.9620203219 -2.8119221396
S 1.6715669002 -1.3886056550 -1.1676429754
O 2.3596143981 -2.7425959287 -1.3461073083
C 2.9587708260 -0.1071331211 -1.1897478091
C 4.2713695018 -0.4718733541 -1.4558795495
C 5.2562931227 0.5144274438 -1.4344022191
C 4.9203272215 1.8349524972 -1.1448931838
C 3.5967497703 2.1797485796 -0.8706108766
C 2.6043838351 1.2042581663 -0.8834200309
H 0.3852172859 -1.5701637780 5.1143267573
H -1.2881092644 -3.2152871971 4.3009834440
H -2.2295673388 -3.0016439573 2.0141825533
H 0.2363270107 0.4501201942 1.3255945581
H 1.1335969900 0.2681147381 3.6216019190
H -2.4157344586 -1.8899986829 -2.5453706802
H -1.0267291040 2.6113651772 -0.5415995775
H -2.1341269497 4.4893917245 0.6484533856
H -4.0025410035 4.0339667705 2.2191584694
H -4.7783802819 1.7019235013 2.5713623690
H -3.7093364590 -0.1640941904 1.3462312162
H -0.1177964225 -2.8449181895 -3.0859043398
H -0.6774915311 -1.5121756192 -4.0919203678
H 1.7047979808 -1.1685030585 -3.5541079605
H 0.7233650046 0.1145678745 -2.7934839557
H 4.5126318985 -1.5075452231 -1.6724413873
H 6.2875649112 0.2475845704 -1.6429721328
H 5.6918035856 2.5979925871 -1.1268503193
H 3.3368023643 3.2076314857 -0.6388187548
H 1.5717318925 1.4626952878 -0.6618949498
