44
CONF209
C -3.5305283648 -2.6156359472 -1.2288702013
S -3.0604815864 -1.6340013684 -2.6643784679
O -4.0778463940 -0.5855244007 -2.8990645363
O -2.7481136416 -2.5619600409 -3.7710120063
C -1.4905126709 -0.8404844574 -2.1754922828
C -1.4267958301 0.1253839228 -1.1602220151
C -0.1596142896 0.6557031655 -0.8889955155
C 0.9809351316 0.2609846888 -1.5876985224
C 0.8700645120 -0.7110934666 -2.5773266032
C -0.3682214644 -1.2578322294 -2.8798953634
C 2.3194461043 0.8904281909 -1.3221006867
O 2.5542982733 2.0381613789 -1.6295084137
C 3.3617152645 -0.0216813515 -0.6697358189
C 2.8668799047 -0.3890107895 0.7485777659
O 2.0685885610 -1.2901586981 0.8929444374
C 3.4314009576 0.4226997422 1.8820152880
C 3.9746092057 1.7787786528 1.4307075576
C 5.0821334722 1.6015884633 0.3940275172
C 4.7300568286 0.6509450099 -0.7200296715
O 5.4863990819 0.3995991052 -1.6374114232
Cl 0.0287345350 1.8218290546 0.4061155181
C -2.6115305202 0.5662449318 -0.3446899406
O -2.5125007886 -0.1086537770 0.9276522285
C -3.2036031157 0.5222927077 1.9854056676
C -4.6707721839 0.1270626673 2.0228589409
F -4.8325455898 -1.2130316398 2.1194839570
F -5.3452882321 0.5236894614 0.9148131038
F -5.2826407096 0.6901676406 3.0912440732
H -4.4653393442 -3.1132869892 -1.5027289936
H -2.7365330896 -3.3427252342 -1.0447046461
H -3.6733478155 -1.9604726319 -0.3673455431
H 1.7516242942 -1.0336545828 -3.1219038745
H -0.4616134538 -2.0089932839 -3.6545746271
H 3.3820298405 -0.9500241923 -1.2522921843
H 2.6598538476 0.5091180732 2.6528612696
H 4.2445261375 -0.1818157231 2.3135887428
H 4.3653451200 2.3199004979 2.2959433321
H 3.1623151904 2.3862316331 1.0179578776
H 5.9885964841 1.1960285643 0.8647425896
H 5.3742620056 2.5531762997 -0.0645603713
H -2.5752292537 1.6525958198 -0.1973247659
H -3.5510523516 0.3266715543 -0.8442647813
H -2.7533672827 0.1829028182 2.9233289589
H -3.1463356842 1.6178572679 1.9303397690
