50
CONF1
C 4.2172239732 -3.1330013976 -0.4381861921
C 3.0208715686 -2.5838663353 0.2858033664
O 3.0294587989 -2.1138773170 1.3964198084
O 1.9131854575 -2.6774456103 -0.5043352767
C 0.6922414480 -2.0877188321 -0.0056787852
C -0.4322426704 -3.0874935558 -0.1071094187
C -1.6863873036 -2.6780211604 0.1132675209
C -1.8425447616 -1.2303319112 0.4622388180
C -3.2347011978 -0.6018645658 0.6087837991
C -3.1102259078 0.8629919416 1.1808207703
C -1.7826080386 1.5487381687 0.9213774697
C -0.8685994947 0.9304237764 0.0891145479
C -1.0828813303 -0.3788390685 -0.5820526469
C 0.3635479017 -0.8482566304 -0.8437797884
O 1.2465865965 0.2804200220 -0.5260157315
C 0.4806088371 1.2379308562 0.0732483874
C 0.9260786223 2.3653413922 0.7467665221
C -0.0029482838 3.0969680719 1.4869432495
C -1.3293478644 2.6826716309 1.6100733476
O 2.2727033514 2.7014633272 0.8263983177
C 2.9478694878 2.8904562342 -0.3616199093
O 2.4144979450 2.8993471720 -1.4375160901
C 4.4112406042 3.0658618152 -0.0856073401
C -1.8723753145 -0.3196823638 -1.8999542166
C -3.3132725499 0.1200130197 -1.6991364680
N -3.9464456494 -0.7043114697 -0.6708635248
C -5.3703060857 -0.4207502421 -0.5587386433
H 5.0180896426 -3.3215175071 0.2757432004
H 3.9622045364 -4.0413348235 -0.9876807668
H 4.5538658693 -2.3882413923 -1.1668406280
H 0.8578663198 -1.7758621840 1.0354426256
H -0.1740456904 -4.1113745940 -0.3573205509
H -2.5408997006 -3.3438590154 0.0399579808
H -1.3297790003 -1.0704901361 1.4241852171
H -3.8115464362 -1.1896967594 1.3339684835
H -3.2541843071 0.8257742676 2.2673256881
H -3.9435301349 1.4640195193 0.7966494538
H 0.5361532094 -1.0833837037 -1.8982011761
H 0.3522178826 3.9710428757 2.0228774808
H -1.9959113559 3.2252581716 2.2738201352
H 4.5693747092 3.7591545612 0.7435061284
H 4.9100242664 3.4191584306 -0.9869263525
H 4.8305196758 2.0989962814 0.2108385573
H -1.3622886420 0.3633556435 -2.5887216332
H -1.8615505913 -1.3223002089 -2.3451136354
H -3.3508622754 1.1993395539 -1.4495899966
H -3.8699063667 -0.0060596033 -2.6354167389
H -5.6022522367 0.6321791082 -0.3080830101
H -5.8595869024 -0.6460663391 -1.5125771888
H -5.8167842892 -1.0598619579 0.2106350902
