48
CONF63
C -2.6543823160 1.7174929694 -3.0383710239
C -1.1318798370 1.6717484312 -3.1320449522
C -0.4675217431 1.6458493920 -1.7539555015
C 1.0572556932 1.7447318989 -1.8470283379
O 1.6490989042 2.1266398727 -2.8352064979
O 1.6412053164 1.4453140161 -0.6831598570
C 3.1007476464 1.4877593339 -0.6619375498
C 3.5523583988 0.8812759695 0.6470159131
C 3.1549173800 -0.5946749929 0.7826540771
C 3.6965909688 -1.2179310657 2.0308414796
C 2.9627567738 -1.8307838613 2.9586547380
N -0.9082857681 0.4943476564 -0.9486456563
C -1.6457640369 0.7782942663 0.3082395045
C -0.7591448161 1.2211377735 1.4120737933
C -0.1685821774 0.5570726080 2.4438875445
C 0.6169527622 1.5176111980 3.1526651642
C 0.4498568815 2.7014368812 2.5052807238
O -0.3921226497 2.5430471737 1.4400082075
C -0.3906566654 -0.7075171793 -1.2845372078
O 0.4884268131 -0.8740612167 -2.1217317975
N -0.9382973761 -1.8499404697 -0.6051986252
C -2.2676117540 -2.2249442930 -0.4756659744
C -2.2405693012 -3.4380243807 0.1533121797
N -0.9375010961 -3.8216088515 0.4185268660
C -0.1822572450 -2.8593467819 -0.0616720283
H -3.0951990397 1.7581348725 -4.0382523014
H -3.0506012839 0.8302556944 -2.5339090147
H -2.9882754870 2.6014490243 -2.4840210494
H -0.8054206537 0.7986409026 -3.7061671575
H -0.7579537028 2.5559350867 -3.6560705599
H -0.7802716878 2.5413065097 -1.2016725177
H 3.4162714542 2.5311120835 -0.7622288908
H 3.4740667394 0.9181942540 -1.5196900207
H 4.6442010595 0.9786301594 0.6913939865
H 3.1414763177 1.4588755264 1.4836872451
H 3.5428190550 -1.1369200050 -0.0927211901
H 2.0634748411 -0.6871246018 0.7667555656
H 4.7772451219 -1.1476814981 2.1670408961
H 3.4152349023 -2.2670016658 3.8444288848
H 1.8831388227 -1.9177915159 2.8550449095
H -2.3971479569 1.5408301246 0.0817762786
H -2.1716744071 -0.1162922676 0.6364347452
H -0.2838707026 -0.4938851323 2.6665783464
H 1.2232092073 1.3490526536 4.0305449694
H 0.8270706949 3.7000193734 2.6634428386
H -3.0732518768 -1.6224844472 -0.8670837028
H -3.0831701460 -4.0606211578 0.4201974445
H 0.8985607228 -2.8113967799 -0.0403476993
