47
CONF24
C 3.7652210492 -2.8122092220 -3.1884290720
C 3.8370913189 -1.5071342245 -2.5007518133
C 2.9225762033 -0.7453935191 -1.8184280600
C 3.6707242386 0.4103159880 -1.4278517993
N 4.9143138326 0.3537371874 -1.8384482671
O 5.0218925713 -0.8736496466 -2.5108552774
C 3.1956583420 1.5953030408 -0.6917267019
C 2.3009066174 2.4763412872 -1.3053757662
C 1.7563106169 3.5739541844 -0.6671264781
C 2.1271546540 3.8140445384 0.6509251123
C 3.0157516213 2.9724150043 1.3105126367
C 3.5361807010 1.8711521347 0.6387698609
Cl 4.5994882125 0.7851327627 1.4969004202
F 1.9441668608 2.2161330073 -2.5744902055
C 1.5091489979 -1.1005363579 -1.6064324529
O 0.9412334380 -1.9677009934 -2.2604028088
N 0.8698804010 -0.3968121451 -0.6150755640
C -0.5381727431 -0.4998325047 -0.4084109437
C -1.0929705400 -1.2209782154 0.8707764969
N -1.6294539064 0.0725316362 1.3139884461
C -1.2310159371 0.7597914292 0.1633129418
O -1.3902423502 1.9001266947 -0.1867345438
C -2.9323155617 0.0854844361 1.9363737085
C -3.7815100478 -1.0178352428 1.1994110531
S -2.5423509857 -2.3478735174 0.7398096124
C -4.3938834123 -0.4058771096 -0.0623209233
C -4.8667765310 -1.6377527088 2.0746604882
C -2.8828820629 -0.1182571207 3.4413044099
O -3.6952831114 0.3443197598 4.2039089493
O -1.8478171694 -0.8980828496 3.8268556628
H 4.6960405061 -3.3669125046 -3.0464400067
H 2.9127072467 -3.3777811629 -2.8127426125
H 3.6156487155 -2.6605433620 -4.2632425762
H 1.0482366443 4.2028293511 -1.1922839299
H 1.7098419010 4.6654661602 1.1770908683
H 3.2988770796 3.1558707377 2.3395216470
H 1.3856172274 0.2920593531 -0.0875438289
H -1.0198989315 -0.8711612389 -1.3182093856
H -0.3359706761 -1.6558796284 1.5285268539
H -3.3987491937 1.0623736994 1.7729119091
H -5.1580259940 0.3307047618 0.2133938092
H -4.8636081827 -1.1848424829 -0.6678421602
H -3.6423225421 0.0925644202 -0.6805832990
H -5.5652241152 -0.8629846509 2.4069752060
H -5.4283900092 -2.3813093355 1.5022245895
H -4.4477185264 -2.1307346171 2.9550254705
H -1.9100869594 -0.9905776956 4.7913675304
