49
CONF25
C -4.4281341651 3.6457477717 0.0217973444
C -3.9109492514 2.2558999812 0.2696690688
C -3.7211757652 1.4035084007 -0.7511957241
C -3.2191354908 0.0229785762 -0.6623145788
C -2.2988473864 -0.5053173322 -1.7761046406
C -3.6946872758 -1.0944507211 -1.5492513762
C -4.7037782098 -0.8169949666 -2.6420975701
C -3.8404928744 -2.4693992816 -0.9374563063
C -1.0780241320 -1.2255893275 -1.3944470194
O -0.8685196641 -1.8151098147 -0.3528030655
O -0.1522144018 -1.1471705169 -2.3983774904
C 1.1231083014 -1.7822348371 -2.1528592756
N 1.9361955843 -1.0191624042 -1.2512034069
C 2.4633702489 0.2482218885 -1.5456702752
O 2.3271459698 0.8297516558 -2.6038960834
C 3.1987868867 0.6910164531 -0.3301134380
C 3.1190672617 -0.2778154075 0.5966880579
C 2.3272172748 -1.4118007855 0.0424506888
O 2.0895395765 -2.4834183686 0.5581925216
C 3.7579901076 -0.2316247258 1.9359411449
C 4.7815402086 0.9137200883 1.9759263510
C 4.2235314175 2.1920969367 1.3362733185
C 3.9036090395 1.9855733295 -0.1525134929
C -3.6458458373 1.9441988133 1.7142457933
H -4.6052730703 3.8319754192 -1.0406082797
H -5.3661834708 3.8127576267 0.5665266779
H -3.7157300792 4.3936915970 0.3929906550
H -3.9527647912 1.7629703114 -1.7521726441
H -2.9035760347 -0.3173613041 0.3194360659
H -2.2024105733 0.1167916150 -2.6597183146
H -5.7154830593 -0.8074043923 -2.2206589548
H -4.6593666178 -1.6097653058 -3.3964503377
H -4.8582940268 -2.5817528727 -0.5476390353
H -3.6821472407 -3.2457119779 -1.6949449085
H -3.1361076487 -2.6326215601 -0.1209452317
H 0.9854504457 -2.7792596010 -1.7276980133
H 1.5877963005 -1.8279493351 -3.1391042259
H 4.2270846706 -1.1967775252 2.1606006457
H 2.9810852767 -0.0876600233 2.7004122500
H 5.0776847622 1.1069567990 3.0112609877
H 5.6834465204 0.6047685993 1.4322764024
H 4.9368810373 3.0139453297 1.4489200621
H 3.3050747663 2.4847918099 1.8608934408
H 3.2905520929 2.8041109314 -0.5477549434
H 4.8253832042 1.9804519892 -0.7515634858
H -4.5620148454 2.0827716849 2.3019443696
H -2.9076674830 2.6464789786 2.1217152739
H -4.5326447835 0.1370421228 -3.1446083934
H -3.2831183033 0.9298627789 1.8846315005
