59
CONF994
C 3.6554370452 3.8398387836 -2.5219653534
C 3.1174383585 3.0031221337 -1.3625490248
C 4.0854925863 1.9030526317 -0.9283745527
C 3.5491551811 1.0657215401 0.2313290033
C 4.4982647158 -0.0579617554 0.6425194290
C 3.9740263976 -0.8808404902 1.8178947824
O 5.0326939015 -1.8008694009 2.1777596004
C 2.7243341504 -1.6241705646 1.4661302448
C 1.5352273006 -1.3991209651 2.0279384731
C 0.2522073278 -2.0216063427 1.5877935263
C -0.6577895596 -2.5087526330 2.7459865503
O -1.0195127094 -3.8780021705 2.4355952804
C -1.8890361763 -1.5950290001 2.7038342709
C -2.0605173242 -1.2924440656 1.2146070183
O -2.6358499549 -2.4026735907 0.5058741233
C -0.6112654758 -0.9951397124 0.7895657280
C -0.3296675991 -1.0160784161 -0.7117608027
C -1.0489368506 0.0733962679 -1.4440067588
C -1.9137797770 -0.1151943488 -2.4421974135
C -2.6610871416 0.9688359852 -3.1565517755
C -4.1854161252 0.8089462514 -3.0350455208
C -4.6524841071 0.9242344246 -1.5900601564
C -6.1365557014 0.7756012267 -1.4206863460
O -6.5131609847 0.9820061766 -0.1372958769
O -6.9308912870 0.4972445877 -2.2965614653
H 3.8487289859 3.2119703980 -3.3989645715
H 4.5976664182 4.3267419125 -2.2466941104
H 2.9466379623 4.6202579358 -2.8164854467
H 2.1607601334 2.5455333266 -1.6494864050
H 2.9038339415 3.6540791287 -0.5043243900
H 4.2945369534 1.2464439659 -1.7847942380
H 5.0456304175 2.3550436854 -0.6421588577
H 2.5780494217 0.6387075189 -0.0521968780
H 3.3601266620 1.7175827989 1.0958739119
H 5.4707973644 0.3626701382 0.9293862189
H 4.6731292767 -0.7322813745 -0.2068905374
H 3.7681596543 -0.2055161594 2.6640577909
H 4.6910478076 -2.3649811821 2.8835383336
H 2.8199608527 -2.3621615557 0.6668843192
H 1.4568859784 -0.6453944087 2.8153544157
H 0.4709047156 -2.8838755871 0.9464560002
H -0.1435870715 -2.4814482147 3.7149344215
H -1.6126476324 -4.1864142461 3.1339246010
H -1.6662931312 -0.6623076023 3.2361840837
H -2.7716777633 -2.0503995731 3.1645199714
H -2.7202449229 -0.4404568943 1.0217314485
H -2.2121997130 -3.2048147278 0.8520543915
H -0.3816082505 0.0102266682 1.1735941276
H -0.6054438640 -1.9940727216 -1.1221319090
H 0.7563204896 -0.8992625568 -0.8459840860
H -0.8466960964 1.0932653354 -1.1074256515
H -2.1256461267 -1.1365181767 -2.7680982121
H -2.4027723936 0.9521743224 -4.2239236236
H -2.3584818322 1.9485090316 -2.7657773364
H -4.4852807525 -0.1646567413 -3.4398731662
H -4.6813339185 1.5731937883 -3.6431820806
H -4.1768705939 0.1579320934 -0.9631327386
H -4.3543862497 1.8853156192 -1.1517484793
H -7.4763323315 0.8607976126 -0.0816537973
