47
CONF63
C -7.3057986285 -1.8150573397 -0.7165977327
O -6.1408692577 -2.2020537946 -1.5093717162
P -5.1108949547 -1.1006870427 -2.0267647406
S -3.6195201808 -1.8685905881 -2.9937864989
O -6.0738624034 -0.0718531463 -2.7804993194
C -5.5113333576 1.1093688631 -3.4178214664
O -4.7141293367 -0.1935368417 -0.7282921373
C -3.6534488398 -0.5220927464 0.1153038928
C -3.6552346817 -1.7072767562 0.8384342464
C -2.5901662143 -1.9795607487 1.6916468274
C -1.5528901492 -1.0560796737 1.8367582123
C -1.5797331923 0.1429898730 1.1187044394
C -2.6245342681 0.4032411272 0.2422704211
S -0.2648374458 -1.4201201793 3.0227200773
C 1.2100083986 -0.8250264838 2.2053648867
C 2.1578061367 -0.1423851280 2.9700244656
C 3.3544671793 0.2727758398 2.3932547122
C 3.5741263676 0.0240244671 1.0452882607
C 2.6371393844 -0.6471963457 0.2685359983
C 1.4590287383 -1.0884263028 0.8551304715
O 4.7700815746 0.3961289339 0.4321077597
P 5.2418534580 1.9554472125 0.3160548559
S 3.8235382574 3.2319688425 -0.0120797381
O 6.4051279662 1.7964490989 -0.7678816031
C 6.0684563267 1.4982302269 -2.1518133935
O 6.0650794249 2.2782610050 1.6423315557
C 7.1535068851 1.4027579359 2.0718860779
H -7.9991293065 -1.2386420266 -1.3323362359
H -6.9918439453 -1.2356703221 0.1555490770
H -7.7649903299 -2.7511438410 -0.4010167429
H -4.7883941686 0.8111440162 -4.1815811696
H -6.3542544944 1.6260055547 -3.8753789364
H -5.0365469246 1.7487979192 -2.6689023853
H -4.4664626474 -2.4191588452 0.7271703678
H -2.5694322909 -2.9144963377 2.2420676245
H -0.7825503250 0.8696543370 1.2340994775
H -2.6542427876 1.3225453028 -0.3329025323
H 1.9644253147 0.0693220599 4.0164507473
H 4.0972996927 0.7985859314 2.9839175027
H 2.8408729903 -0.8300740732 -0.7811127148
H 0.7306015884 -1.6276328908 0.2587511554
H 5.4444448651 2.2960664245 -2.5629642382
H 7.0191388881 1.4499549147 -2.6816163128
H 5.5515051975 0.5369277057 -2.2130436765
H 7.4492588027 1.7693942642 3.0541291676
H 6.8006439857 0.3706942687 2.1447056579
H 7.9866876181 1.4760255149 1.3701513909
