49
CONF1
C -1.1151262235 -1.9295112131 4.6096193616
C 0.1220558065 -1.5665565462 4.0818656374
C 0.2333834794 -1.1667858750 2.7538702672
C -0.9041975081 -1.1614973877 1.9456895059
C -2.1500422398 -1.5232281892 2.4627090777
C -2.2475055353 -1.9000912629 3.7977239428
N -0.7707079425 -0.7787022286 0.5873851290
C 0.0664083111 -1.3912030048 -0.3266323842
O 1.0482305001 -2.0563796081 -0.0451376740
C -0.5711620886 -1.2251442615 -1.6899380698
C -1.7044241060 -0.2580195755 -1.4444872247
O -2.3774404915 0.3396787048 -2.2665570086
N -1.8624445503 -0.1593048243 -0.0690762942
C -2.4814113308 0.9613366013 0.5568143168
C -1.7483309912 1.8173145190 1.3787120916
C -2.3905916492 2.8980606627 1.9738616780
C -3.7445133680 3.1331491518 1.7407590046
C -4.4637745084 2.2725947797 0.9144666641
C -3.8400985236 1.1742514609 0.3306211737
C 0.3618565412 -0.9695729802 -2.8849303214
C 0.5643438935 0.4697739295 -3.3390671550
S 1.4118899993 1.5836183217 -2.1361983002
O 0.7086320699 1.3655620160 -0.7883332105
C 3.0055220552 0.7087592696 -2.0387914687
C 3.8582103369 0.7120598909 -3.1408531471
C 5.0918436628 0.0771025029 -3.0360763666
C 5.4667910528 -0.5336852793 -1.8389317074
C 4.6093274668 -0.5088661767 -0.7421559865
C 3.3688792186 0.1204601724 -0.8354737208
H -1.1981488215 -2.2273113505 5.6497099840
H 1.0070873152 -1.5758808495 4.7100779284
H 1.1863692685 -0.8553867634 2.3434279748
H -3.0299045089 -1.5121689517 1.8288597769
H -3.2155855312 -2.1795049369 4.2011962887
H -1.0519485973 -2.2047641623 -1.8523446492
H -0.6919400298 1.6419839886 1.5440968384
H -1.8245058873 3.5645512586 2.6168677590
H -4.2377525964 3.9801876174 2.2063277284
H -5.5203687440 2.4436971439 0.7350713166
H -4.3970950701 0.4823379247 -0.2907043404
H 1.3259727846 -1.4368402385 -2.6538934437
H -0.0408339227 -1.5010133865 -3.7523770134
H 1.1762224530 0.4977129221 -4.2470347588
H -0.3845172231 0.9717900024 -3.5483311921
H 3.5696509332 1.1995503964 -4.0679180106
H 5.7632093486 0.0648990510 -3.8887555223
H 6.4319516654 -1.0239585275 -1.7616437698
H 4.9028073040 -0.9797383136 0.1908807979
H 2.6837255173 0.1446847005 0.0046896040
