47
CONF121
C 0.8938021334 2.5042453188 2.3987375704
C -0.6285588151 2.3823003186 2.3989245208
C -1.1468337975 1.6951356085 1.1349345363
C -2.6591589848 1.5803441199 1.1472695485
O -3.1226371429 0.8862931083 -0.0549895042
C -3.2867081571 1.6254033715 -1.1538412204
O -3.1966405457 2.8353483782 -1.2109091497
C -3.6739607831 0.7793450940 -2.3675284715
C -5.1887179080 0.6751592603 -2.4591409079
O -3.1684357945 -0.5574285455 -2.2934109110
C -1.8107178172 -0.7267325997 -2.2152846269
C -1.3854724341 -2.0221220429 -1.9038018643
C -0.0325581476 -2.2983724925 -1.7768858182
C 0.8880853328 -1.2735229996 -1.9561340367
C 0.4841662955 0.0077920376 -2.2842609657
C -0.8748454193 0.2889188612 -2.4204297524
O 2.2601765916 -1.5554312466 -1.8734634081
C 2.8432716190 -1.5418397563 -0.6452887089
C 4.2062733846 -1.8707136889 -0.6061302279
C 4.8289909445 -1.8589918527 0.6217604461
C 4.0815650117 -1.5251192966 1.7594010710
C 2.7379049920 -1.2196235789 1.6090310821
N 2.1216977166 -1.2242042298 0.4188046799
C 4.7413654124 -1.5171096568 3.0973885208
F 5.1633193718 -2.7589092936 3.4657119939
F 3.9260393707 -1.0730938801 4.0794341583
F 5.8489645540 -0.7271437302 3.1112028156
H 1.3639719752 1.5163667487 2.3413843152
H 1.2376910461 3.0884551404 1.5382036473
H 1.2532032265 2.9965610978 3.3075256114
H -0.9558883352 1.8168111477 3.2808416427
H -1.0795748269 3.3795854816 2.4801075502
H -0.8319981744 2.2620462469 0.2501276332
H -0.7105356122 0.6912713116 1.0507323227
H -3.1430443480 2.5593681975 1.2010357777
H -3.0072085158 0.9527462692 1.9706654574
H -3.2789384883 1.2906324305 -3.2541051777
H -5.5891668191 0.1665339962 -1.5780288708
H -5.4610575023 0.1128101587 -3.3555066595
H -5.6233565772 1.6754250117 -2.5253484940
H -2.1269987289 -2.8000402589 -1.7550349579
H 0.3090180386 -3.2972411205 -1.5259079491
H 1.2230794934 0.7896456443 -2.4255643230
H -1.1734729674 1.2982501843 -2.6767491406
H 4.7356854519 -2.1213787905 -1.5176014029
H 5.8829821170 -2.1050719067 0.7041356194
H 2.1252315736 -0.9599036980 2.4679853295
