39
CONF632
C 3.1890868239 -1.0654796427 -0.5179682049
C 1.7372064021 -1.0232192454 -0.9762660609
O 1.5748597465 -1.9716343380 -2.0356084162
C 0.4650299836 -1.7082458575 -2.8932741514
C -0.8947985772 -1.8423677445 -2.2367336808
O -1.0835839247 -0.6957342204 -1.3916165696
C -2.1627245529 -0.6653506614 -0.5626570510
C -3.2794811024 -1.4848816640 -0.6752655324
C -4.3506224945 -1.3367641893 0.2126813901
C -4.3018915710 -0.3706830369 1.2062889809
C -3.1773001649 0.4520235930 1.3363372390
C -2.0992530651 0.3011839048 0.4702435690
O -0.9414853244 1.0176023359 0.5201006443
C -0.7834075347 1.9864023777 1.5684668074
C 0.6463102354 2.4632575390 1.5316200313
O 1.4814026462 1.4402563585 2.0753540383
C 2.8784811473 1.6781493619 1.8684435020
C 3.3779012179 1.0660502206 0.5766214195
O 3.3375675706 -0.3597235759 0.7146594893
H 3.4786895810 -2.1028690163 -0.3179787965
H 3.8596783528 -0.6613004667 -1.2909726322
H 1.0887922157 -1.2707564611 -0.1249563854
H 1.4636778632 -0.0192042314 -1.3268386988
H 0.5552566961 -0.7030389193 -3.3343587891
H 0.5284627279 -2.4481512966 -3.6974899006
H -1.6671306948 -1.8718535840 -3.0183309130
H -0.9544217468 -2.7622348224 -1.6387735650
H -3.3265636023 -2.2335071443 -1.4578024556
H -5.2180452104 -1.9809816454 0.1125044795
H -5.1327455607 -0.2451064228 1.8929460612
H -3.1497957963 1.1996824679 2.1200055889
H -0.9999777440 1.5326127648 2.5443638716
H -1.4664727079 2.8308022622 1.4051345879
H 0.9299535961 2.7012168013 0.4955737018
H 0.7317673124 3.3818782941 2.1328189352
H 3.0963682099 2.7559361078 1.8750179059
H 3.4024281644 1.2181971295 2.7140036410
H 2.7551343325 1.4009815183 -0.2634509503
H 4.4116462373 1.3968553341 0.3871570762
