45
CONF1095
O -0.7261290232 -0.3965444964 -2.9609309370
C -1.9911506644 -1.0081427103 -2.7084505166
C -2.4193437294 -0.9482434724 -1.2596845872
O -1.4528883144 -1.6826893322 -0.4531796149
C -1.3188912205 -1.0991877396 0.8240330186
C -1.3962440979 -2.1815476665 1.8970395645
O -2.6217664551 -2.9041726297 1.8552751828
O -0.0376930545 -0.4391261266 0.9990165432
C 1.0604453305 -0.8995428948 0.2367488851
O 1.2389409485 -0.1242692859 -0.9420600281
C 1.5000083219 1.2824359434 -0.7025277836
C 1.5277730446 1.9802909180 -2.0521570937
O 0.2280528889 2.2354163701 -2.5784081128
C 2.8136562480 1.4092074134 0.0661046980
O 3.0463551049 2.7965329158 0.3081151776
C 2.6969973477 0.6409265247 1.3743430847
O 3.9631381600 0.7313058516 2.0314991189
C 2.3158469704 -0.8127732643 1.1105786412
O 2.1617229109 -1.5410487635 2.3250331796
C -2.3850827644 0.0111467496 0.8839068820
O -2.1050920591 1.0551470306 1.7909395940
C -2.4978404591 0.4147019050 -0.5902818741
O -3.7181729565 1.0482219211 -0.9376771684
H -0.1031127945 -0.6750463424 -2.2655227841
H -2.7366269617 -0.4823298986 -3.3138715215
H -1.9728813871 -2.0609447829 -3.0246951643
H -3.4007167811 -1.4403967372 -1.1744328138
H -1.2304113239 -1.7116741544 2.8751903500
H -0.5853055591 -2.8969051339 1.7147535606
H -3.2650001278 -2.4485227539 2.4107844082
H 0.9010796336 -1.9247749503 -0.1096593575
H 0.6865463567 1.7109819052 -0.0991859166
H 2.1379908887 1.3841739179 -2.7485589119
H 2.0090859333 2.9531234148 -1.9226420012
H -0.1943238873 1.3792746096 -2.7822015820
H 3.6315145340 0.9756791394 -0.5340205999
H 3.8000982848 2.8545661487 0.9106150854
H 1.9154553913 1.1193372279 1.9883254664
H 3.8842911826 0.2727812623 2.8784785615
H 3.1329924195 -1.2975738882 0.5644921933
H 1.3754839336 -1.1893094252 2.7683944472
H -3.3442526193 -0.4252245193 1.1884287582
H -1.1989992926 1.3502651241 1.6177370187
H -1.6328257568 1.0358615001 -0.8696828295
H -3.6927235553 1.9486132704 -0.5900020410
