24
CONF5
C -0.9170719947 -1.5108169813 2.2150041877
N -1.4660992881 -0.7011264509 1.1316422549
C -0.7166207296 -0.0024595479 0.1958325455
C -1.6106729268 0.6227362902 -0.6587016981
C -2.9209202754 0.3065556531 -0.2421361279
C -2.7910676728 -0.5096185833 0.8685777788
Br -4.1385754539 -1.2704515328 1.9191092214
Br -4.5277282935 0.8726604774 -1.0219036619
Br -1.1283210072 1.7197619298 -2.1039176595
C 0.7285341660 -0.0033830470 0.1779332224
C 1.6014614678 -0.6830773023 -0.6567217319
C 2.9215660624 -0.3442220106 -0.2922944386
C 2.8189491849 0.5407858822 0.7673582577
N 1.5007902777 0.7510796722 1.0496559181
C 0.9787109230 1.6308388698 2.0909849993
Br 4.1915319937 1.3629781817 1.7359428750
Br 4.5085708509 -0.9632913099 -1.0724200623
Br 1.0844160061 -1.8651501950 -2.0206628098
H 0.1642392521 -1.5663527878 2.0823964976
H -1.1448682330 -1.0558362546 3.1832141655
H -1.3360412899 -2.5189774904 2.1757840006
H 1.2320439071 1.2406141213 3.0808342854
H -0.1058109600 1.6777039542 1.9832216417
H 1.3950917552 2.6340984378 1.9744134528
