52
CONF9
C 1.8550482539 0.4241030931 -0.1519580618
C 3.0543923591 1.0339287756 -0.8949024957
C 4.2763602614 0.2344185249 -0.3721393420
C 3.7043656052 -0.8855721194 0.5601980181
O 4.4070939033 -2.1323983890 0.4427637964
C 3.7491336688 -0.4440617522 1.9572101320
C 3.8213310593 -0.0695422208 3.1023521220
C 2.2418953491 -1.0524749405 0.0450890546
C 2.2860612643 -1.8383824193 -1.2758977900
C 1.2446362038 -1.6907710281 1.0093953686
C -0.1900567118 -1.5421157440 0.4803727106
C -0.5681227795 -0.0784499894 0.1853189888
C 0.4596044588 0.6150745681 -0.7364628981
C 0.1177794606 2.0966774865 -0.8700557068
C -1.2885946084 2.2763457128 -1.4384512652
C -2.3335136860 1.5427963057 -0.6517946257
C -3.5340604698 2.1217770672 -0.4229633572
C -4.5511934142 1.3324108974 0.1968989267
C -4.3508411756 0.1019180688 0.7517174679
C -2.9718004416 -0.4515758181 0.8465677948
C -2.0480559782 0.0770301679 -0.2947126721
C -2.3400452536 -0.7324626322 -1.5789752996
C -5.6344650445 -0.2725517377 1.1975919108
N -6.5488590920 0.6431210075 0.9337621871
O -5.8493565604 1.6906683999 0.2835894671
H 1.8329221028 0.8702630407 0.8555634985
H 3.1540480065 2.1055767075 -0.7041631380
H 2.9398188350 0.9035171954 -1.9769390840
H 4.9874990469 0.8615854380 0.1703256566
H 4.8197840431 -0.2549654606 -1.1850738379
H 5.2945828698 -2.0016667700 0.8018327642
H 3.8770543188 0.2551986111 4.1162631143
H 2.5112448874 -2.8893555304 -1.0775909579
H 3.0461728696 -1.4573333753 -1.9620434337
H 1.3239683405 -1.7907965989 -1.7893506239
H 1.3189342795 -1.1932924250 1.9841659202
H 1.4756524645 -2.7519763037 1.1645639524
H -0.3113646727 -2.1504390852 -0.4218153440
H -0.8734364543 -1.9588864637 1.2267860719
H -0.5116930579 0.4641950597 1.1443264330
H 0.4260583720 0.1634889994 -1.7384345894
H 0.8398124485 2.5993147589 -1.5230532423
H 0.1857560384 2.5722411567 0.1187800598
H -1.5588565638 3.3349835475 -1.5084457501
H -1.2922828674 1.8825613968 -2.4662450097
H -3.7482660976 3.1342097471 -0.7516692601
H -2.9884061573 -1.5445710052 0.8193670778
H -2.5421719181 -0.1642927459 1.8180713298
H -3.3789986524 -0.5723518523 -1.8858625133
H -2.2038671108 -1.8026511738 -1.4002426689
H -1.6905397705 -0.4353421539 -2.4060273699
H -5.9421625286 -1.1791255183 1.7064134012
