55
CONF60
C -8.6539872122 0.9747150808 -0.0057516133
C -8.1706928542 -0.3911169878 -0.4446948797
O -6.7632752493 -0.3514102409 -0.8230185246
C -5.8717819162 -0.4338309386 0.1943073888
O -6.1652449738 -0.6047427445 1.3655708652
N -4.6075552236 -0.3031884202 -0.3153914096
C -3.3880733848 -0.3366450743 0.3724897045
C -2.2299721368 -0.1705916034 -0.3970511684
C -0.9826890641 -0.2080431042 0.2061270756
C -0.8677877805 -0.3591616860 1.5894507766
C -2.0211384217 -0.5079198549 2.3558057784
C -3.2755862575 -0.5156447971 1.7584953874
S 0.7470446532 -0.3492093070 2.3396324440
C 1.5102031857 0.8502655426 1.2688127347
C 2.4558581412 1.7467946343 1.7662474409
C 3.0218822035 2.6913332109 0.9168892977
C 2.6075724190 2.7794484827 -0.4115727743
C 1.6504848811 1.8985932493 -0.9036841546
C 1.1419721601 0.8953572136 -0.0807345571
N 0.2121950217 -0.0740734320 -0.5684816687
C 0.5198884046 -1.0628192194 -1.4956851841
O -0.2767331807 -1.9663166845 -1.7309303663
C 1.8571442957 -1.0211351054 -2.2033815168
C 2.6882680255 -2.2510633724 -1.8269065858
N 3.0828187359 -2.2464570948 -0.4137881696
C 3.5740403356 -3.5771475444 -0.0263514663
C 3.9971912925 -3.5780456894 1.4317522573
O 5.0325534180 -2.6170654365 1.6700107066
C 4.5663117469 -1.3135730745 1.3052546456
C 4.1446198402 -1.2622775427 -0.1532186996
H -8.1340580951 1.3039893474 0.8976707750
H -9.7254617693 0.9240309913 0.2120802534
H -8.4978486676 1.7129987117 -0.7974774092
H -8.6761254208 -0.7209996698 -1.3545906415
H -8.3060372776 -1.1433948439 0.3365159770
H 2.0878130956 -3.1490993969 -2.0084747810
H -1.9436283853 -0.6174213587 3.4327702902
H -4.1596629837 -0.6381487678 2.3663759435
H 2.7406101785 1.7050709991 2.8127795066
H 3.7656938397 3.3800651712 1.3035685088
H 3.0212290126 3.5411959750 -1.0637067298
H 1.3120003840 1.9629551264 -1.9328638356
H 1.6407137527 -1.0673215929 -3.2761279713
H 2.4175235280 -0.1064292204 -2.0230166689
H 3.5703125808 -2.3017452336 -2.4925423744
H 2.7712896705 -4.3107485426 -0.1681989050
H 4.4341453556 -3.8865878230 -0.6528664392
H 3.1299930802 -3.3520666944 2.0742169911
H 4.4031072182 -4.5547471931 1.7100331488
H 3.7183315384 -1.0343141607 1.9511342329
H 5.3926722562 -0.6196714545 1.4845773598
H 5.0268972572 -1.4542007891 -0.7957058828
H 3.7826135741 -0.2512597563 -0.3722567284
H -2.2986604948 -0.0310861765 -1.4708673787
H -4.5543719517 -0.1622126971 -1.3146630123
