44
CONF6
C -4.7528898818 -0.5917657327 0.6170901378
C -3.5452867146 0.3442663207 0.5327756948
C -3.7352490061 1.4694912313 1.5645242921
C -3.3746855648 0.9502131257 -0.8709986145
C -1.9608667729 1.5321230038 -0.8599119439
C -1.1319652272 0.4805302710 -0.0964514328
C 0.0367637600 1.0656931854 0.7073090510
C 1.0531520313 1.7022350685 -0.2021317349
C 1.1173280437 3.0868050507 -0.3714580798
C 2.0336697465 3.6682148380 -1.2452818940
C 2.8945457196 2.8420678693 -1.9546660127
Cl 4.0631464418 3.5634230664 -3.0623935836
C 2.8629244298 1.4597332542 -1.8102155409
C 1.9387973741 0.9027072129 -0.9328810843
C -2.1603454052 -0.3515177417 0.7642391897
O -1.8841049987 -0.3568477309 2.1654524776
C -2.1890940255 -1.8131769826 0.2645057636
N -0.8603948314 -2.4181554027 0.2739908697
C -0.1086656472 -2.8397771452 -0.7604151668
N 1.0802820055 -3.2524280015 -0.3312701021
C 1.0033434635 -3.0460850976 1.0099144960
N -0.1545848184 -2.5441038137 1.4264301375
H -4.7946352448 -1.0989746284 1.5874344048
H -5.6723415389 -0.0065981397 0.5081356461
H -4.7498512308 -1.3481161227 -0.1736703470
H -3.9303435670 1.0581288753 2.5574915573
H -4.5942517370 2.0815104338 1.2689086478
H -4.1508839795 1.6905818305 -1.0903061840
H -3.4491013496 0.1593789934 -1.6291904995
H -1.9467009356 2.4904014422 -0.3284475715
H -1.5663118760 1.7152919114 -1.8636275391
H -0.6950028327 -0.1960298260 -0.8410894151
H 0.5209390400 0.2666868752 1.2806236212
H -0.3404779222 1.8011931823 1.4253662226
H 0.4428528071 3.7277503646 0.1891732694
H 2.0765550192 4.7447087588 -1.3676220254
H 3.5486072678 0.8310978860 -2.3672809427
H 1.9099710760 -0.1778352648 -0.8117202146
H -2.8603354835 2.1196248924 1.6404552947
H -2.5459920341 -1.8650092277 -0.7672255509
H -2.8450975368 -2.4131029425 0.9017453241
H -0.4640093267 -2.8337012968 -1.7827426894
H 1.8060324486 -3.2733678380 1.6999728929
H -1.1475681029 -0.9719533719 2.3196499285
