39
CONF43
C 4.8902682104 -0.6643067034 -2.1765144907
C 3.9735533596 -0.2147634547 -1.0406160254
C 2.4983161542 -0.4484585736 -1.3675484707
C 1.5794686614 -0.0180887576 -0.2385068742
C 1.5591516294 -0.9674113741 0.9776028165
O 0.3211297381 -1.6893016800 0.8334881896
C -0.5651576145 -0.7585438790 0.2462756393
C -1.6442609811 -1.5543915771 -0.5029348898
N -2.6110317780 -0.6727470401 -1.1296222119
C -2.5211619879 -0.0313257375 -2.3120514950
N -3.5757520282 0.7557621122 -2.4876207513
C -4.2920835524 0.5566311865 -1.3448641586
N -3.7476308116 -0.2984276440 -0.4891455003
O 0.2053890239 -0.0629383642 -0.7159183824
C -1.1436671871 0.2198414601 1.2769968705
C -1.7639106860 -0.1771801071 2.4661114584
Cl -1.9437768451 -1.8724505897 2.9002702579
C -2.2925626942 0.7395017069 3.3683294665
C -2.2041821737 2.0908447013 3.0640438142
Cl -2.8696817671 3.2551577200 4.1958128895
C -1.6086514620 2.5358638227 1.8929661644
C -1.0883593977 1.5912155717 1.0177392425
H 5.9418610375 -0.4859416086 -1.9322161979
H 4.7664012155 -1.7340991633 -2.3768258065
H 4.6607256092 -0.1218781973 -3.1001435526
H 4.1308650138 0.8520081001 -0.8357189759
H 4.2408711982 -0.7511949019 -0.1209792997
H 2.3178266797 -1.5101700116 -1.5838248128
H 2.2302132707 0.1186541437 -2.2676846288
H 1.8092608365 1.0090275863 0.0746728021
H 1.5673015793 -0.4158081679 1.9260169002
H 2.3696970137 -1.6985110034 0.9654812841
H -1.1459469924 -2.1452754520 -1.2754102544
H -2.1741516193 -2.2168901357 0.1821780151
H -1.6944277530 -0.1763839615 -2.9948054628
H -5.2368087786 1.0439502123 -1.1389264175
H -2.7654025235 0.4025887820 4.2826442715
H -1.5499856653 3.5935301843 1.6649999897
H -0.6237057524 1.9219115835 0.0962484547
