49
CONF70
C -6.4882188258 2.2066587668 -0.7582463292
C -4.9970188897 2.0710297196 -0.6217012150
C -4.3659618535 0.9694177863 -1.0604774315
C -2.9184629834 0.7024284501 -1.0018963731
C -2.2775032604 -0.1162284203 -2.1297459060
C -2.3396143070 -0.6544589282 -0.6931325696
C -3.2542856465 -1.8411098682 -0.4832610510
C -1.0853145291 -0.7157925375 0.1525252467
C -1.0195335829 0.2526213168 -2.7932711687
O -0.6454864980 -0.2269853557 -3.8465537272
O -0.3133952009 1.1989704877 -2.1092892213
C 1.0636792838 1.4263385078 -2.4974191689
N 1.9341416975 0.8912531051 -1.4947874792
C 2.1788595696 1.5150458582 -0.2579284280
O 1.8380793645 2.6447107781 0.0299512354
C 2.8995055407 0.5199351812 0.5801004660
C 3.0170187599 -0.6241532045 -0.1156088038
C 2.3785437426 -0.4434790656 -1.4468868961
O 2.2485544989 -1.2557666106 -2.3395195157
C 3.6819891448 -1.8569337680 0.3754827918
C 4.4961745396 -1.5328062501 1.6375218867
C 3.7095709029 -0.6350407585 2.6016177924
C 3.3848336657 0.7265564441 1.9676964040
C -4.3271492021 3.2476658857 0.0278136814
H -6.7416788528 3.0944147900 -1.3518899545
H -6.9356797910 1.3307142693 -1.2349510013
H -6.9554390988 2.3463330204 0.2249823606
H -4.9760672671 0.1911267527 -1.5157169390
H -2.2938201985 1.5206862749 -0.6606947810
H -2.9626797489 -0.6060900431 -2.8146971658
H -3.6252090119 -1.8472067215 0.5481587437
H -2.6998545000 -2.7713349524 -0.6482253661
H -1.3676288258 -0.8828125413 1.1977857160
H -0.4444513205 -1.5495400796 -0.1595593151
H -0.5075510967 0.2076743839 0.1011692023
H 1.2678612006 0.9476271818 -3.4566064479
H 1.1943531572 2.5078415977 -2.5497140586
H 4.3144331043 -2.2825589775 -0.4123836050
H 2.9151230620 -2.6149716486 0.5904696473
H 4.7855833910 -2.4620779374 2.1371533729
H 5.4214429259 -1.0209524734 1.3436998245
H 4.2754411911 -0.4852506256 3.5258184683
H 2.7704329556 -1.1343056409 2.8725210299
H 2.6325680980 1.2713773885 2.5500998467
H 4.2766939258 1.3690006651 1.9467068509
H -4.5226198099 4.1591577641 -0.5511104959
H -3.2474531969 3.1347023089 0.1335259420
H -4.1139204803 -1.8353895402 -1.1560603911
H -4.7519312459 3.4176863757 1.0251563897
