33
CONF15
O -4.3403701142 3.2566617725 0.1107406718
C -3.7621314303 2.0284948641 0.0585660940
C -4.5282407400 0.8647364399 0.0025884077
C -3.8805367781 -0.3637731263 -0.0512275966
O -4.6070806508 -1.4808580329 -0.1341969971
C -2.4582523096 -0.4322656358 -0.0403409892
C -1.7852335483 -1.6899335473 -0.2181906115
O -2.3859979465 -2.7737335966 -0.3210511197
C -0.2802309970 -1.6207373580 -0.3178211892
C 0.2604299330 -0.4423966234 0.4855073331
O -0.3702428180 0.7883801594 0.0452555064
C -1.7277431629 0.7795646913 0.0336877324
C -2.3648986821 2.0053561556 0.0785952624
C 1.7458431733 -0.2756574959 0.3492587463
C 2.5913499282 -0.7119387223 1.3646281339
C 3.9740848787 -0.6269027622 1.2107675206
C 4.5071881688 -0.0942571264 0.0480140677
O 5.8529725126 0.0437446146 -0.1982704639
C 3.6603035753 0.3568898761 -0.9759114202
O 4.1718387463 0.8913465349 -2.1188979013
C 2.2863837021 0.2582694261 -0.8220227382
H -5.2996142780 3.1559148324 0.1072297720
H -5.6129594946 0.8937634451 -0.0121407873
H -3.9508227176 -2.2306920176 -0.2095013442
H 0.1543002131 -2.5602602613 0.0339603716
H -0.0036550945 -1.5027423754 -1.3747012820
H 0.0000218573 -0.5806382652 1.5460929720
H -1.7976604664 2.9246268502 0.1458173239
H 2.1784048262 -1.1193293977 2.2819962174
H 4.6357092297 -0.9661959565 2.0037988642
H 6.3557260017 -0.2791756648 0.5568121494
H 5.1358540435 0.8829930082 -2.0507004882
H 1.6452613387 0.6207445914 -1.6183424139
