33
CONF12
C -5.2721403870 -0.1900471283 -0.2875016266
C -3.7591953327 -0.3282172409 -0.4014658948
C -3.3566023869 -0.1783533863 -1.8657549267
O -3.3817641004 -1.1023671041 -2.6499824083
O -3.0409044352 1.0834815541 -2.1951034906
O -3.1864772845 0.6681676948 0.4419298000
C -1.8287541912 0.6370478734 0.6493177319
C -1.3247152820 1.6532630113 1.4671618082
C 0.0305645460 1.7199126943 1.7434023176
C 0.8908529602 0.7650615394 1.2051899142
C 0.4032308630 -0.2501375457 0.3960424801
C -0.9629956210 -0.3136935161 0.1123322068
O 2.2313127900 0.8868814382 1.5563360833
C 3.1543943005 0.1583007112 0.8448496661
C 3.5491868826 0.5360217104 -0.4419984571
C 4.5333013566 -0.1702775030 -1.1230911363
C 5.1224524171 -1.2579763056 -0.4896983077
C 4.7570276359 -1.6497119103 0.7922779747
C 3.7650318278 -0.9335225721 1.4512914007
Cl 6.3703907024 -2.1524624343 -1.3405296848
Cl 2.8128134977 1.9235227210 -1.2028942591
H -5.7606456051 -0.9374647204 -0.9169113886
H -5.5879013729 0.8083609786 -0.6019233912
H -5.5702873003 -0.3510698549 0.7510733089
H -3.4507914904 -1.3315999234 -0.0815969852
H -2.8315252014 1.1053453390 -3.1452934478
H -2.0082638442 2.3893252384 1.8771558399
H 0.4309223235 2.5081444236 2.3721592593
H 1.0693973413 -0.9965938514 -0.0228473094
H -1.3168701050 -1.1162740148 -0.5238699558
H 4.8353630995 0.1304453052 -2.1188935955
H 5.2321425698 -2.4990571303 1.2684156930
H 3.4514488211 -1.2144558951 2.4511420464
