47
CONF158
C -6.1817071010 0.3976260692 -3.3937833408
O -5.2805971901 -0.4156638837 -2.5897092920
P -5.7602822628 -0.9817068219 -1.1741885333
S -6.6660887697 0.2479531891 0.0248532455
O -6.5462383375 -2.3038039192 -1.6083224130
C -7.2691761860 -3.0825482747 -0.6140783771
O -4.3754211152 -1.6228438828 -0.6217776708
C -3.4605416871 -0.8583808717 0.1087738157
C -3.3472147880 -1.0952177499 1.4699386756
C -2.3949121883 -0.3916824703 2.2015009404
C -1.5885225803 0.5563021546 1.5692858969
C -1.7270584889 0.7919105163 0.1982848695
C -2.6559105228 0.0713864681 -0.5408584490
S -0.4529412068 1.5112724509 2.5684091293
C 1.0554028267 1.4656740207 1.6081196251
C 1.8569081336 2.6098579305 1.5931750114
C 3.0771908357 2.5982798586 0.9251203411
C 3.4698240202 1.4457572546 0.2596037745
C 2.6773652234 0.3034488176 0.2509950956
C 1.4714566034 0.3106817235 0.9405111285
O 4.6661488663 1.4528942083 -0.4679638732
P 6.0214039271 0.9051337410 0.2400099131
S 6.6323535692 1.8687168560 1.8113539005
O 6.9106148967 0.9608311307 -1.0841836506
C 8.3277306547 0.6462371835 -0.9916220181
O 5.7731226022 -0.6674481613 0.4429736196
C 5.6037455040 -1.2706885807 1.7552975523
H -5.6070543807 0.6860140422 -4.2732945537
H -6.4878495883 1.2830358100 -2.8312072837
H -7.0552789555 -0.1897897233 -3.6885681264
H -6.5761244159 -3.4648524075 0.1403909712
H -8.0411692389 -2.4663463185 -0.1466595318
H -7.7213360252 -3.9083460260 -1.1624068907
H -3.9867392152 -1.8310862184 1.9451119956
H -2.2812795898 -0.5830946787 3.2633498086
H -1.1055458415 1.5322008145 -0.2944301406
H -2.7660521990 0.2362704638 -1.6070488574
H 1.5288011824 3.5125260220 2.0981241561
H 3.7104191857 3.4780397185 0.9039739084
H 3.0089681386 -0.5818330851 -0.2806728856
H 0.8544748582 -0.5815152407 0.9510346930
H 8.4651132518 -0.3746068547 -0.6240166293
H 8.7120934624 0.7340544538 -2.0071166449
H 8.8275987120 1.3608098790 -0.3326385312
H 4.7252233647 -0.8551141410 2.2544412500
H 5.4622492820 -2.3347742335 1.5656853099
H 6.4968317100 -1.1055710325 2.3612750835
