54
CONF11
C -3.6863206746 1.7875754805 3.7382045769
C -2.7226220046 2.3491675402 2.6934898455
C -3.4654969335 3.1092162551 1.5916458850
C -1.8038491507 1.2476888408 2.1283700453
C -0.6684098756 1.8854991698 1.3065835884
O 0.0890515918 2.6931920580 1.8274169605
N -0.5849984327 1.5046157251 0.0070911924
C 0.5488869276 1.8752509479 -0.8162918147
C 0.1445991485 1.7765424126 -2.3080161472
C -0.1559517042 0.3426922729 -2.6703514334
O -1.0699756288 -0.3047139323 -2.1966546738
O 0.7277590484 -0.1537406370 -3.5506972982
C 0.5590325969 -1.5565441228 -3.8611545090
C 1.7898385255 1.0320793988 -0.5559493410
C 3.0264687884 1.4898800158 -1.0127876120
C 4.1750315702 0.7230215346 -0.8679019687
C 4.0751863354 -0.5209114149 -0.2550157093
C 2.8610703681 -0.9939854115 0.2217701463
C 1.7194822634 -0.2116502324 0.0681199292
Cl 5.5189542739 -1.5036031089 -0.0697152417
N -2.5598636439 0.2311029396 1.4156739491
C -2.1389091980 -1.0658263370 1.3588855742
O -1.0646767668 -1.4603185279 1.7789714891
O -3.0816969245 -1.8395085160 0.7654379625
C -2.7083856859 -3.2349893036 0.5340007452
C -4.0185467345 -3.9803057490 0.3741504603
C -1.8140708294 -3.3264328084 -0.6896109044
H -3.1464608979 1.2678043680 4.5357725037
H -4.2686464884 2.5953255616 4.1920563767
H -4.3942096756 1.0786103150 3.2947209423
H -2.0375171767 3.0497273676 3.1833516335
H -4.0100728205 3.9558012252 2.0201852225
H -4.2083516874 2.4820585228 1.0831679647
H -2.7750737494 3.5001280960 0.8376746393
H -1.1857448375 0.7646484838 -0.3317547573
H -0.7580636527 2.3735369274 -2.4747511444
H 0.9530455018 2.1592261127 -2.9326868262
H 1.3470138231 -1.7906244275 -4.5756950862
H -0.4279945737 -1.7335082558 -4.2953275816
H 3.1010364989 2.4668081346 -1.4838069114
H 5.1349928693 1.0841100051 -1.2178718416
H 2.8042083186 -1.9562912784 0.7172069269
H -3.4806659783 0.4401941228 1.0653943092
H -2.1694526444 -3.5816950399 1.4220652277
H -4.6418220141 -3.8684520863 1.2650728297
H -3.8206931436 -5.0447762272 0.2193411711
H -4.5716534199 -3.6019049757 -0.4909334211
H -1.5552356884 -4.3733435452 -0.8783211878
H -0.8918981524 -2.7619645221 -0.5362164925
H -2.3265904134 -2.9237242660 -1.5683538633
H 0.7785464722 -0.5782161878 0.4667647334
H -1.2911818097 0.7591845301 2.9665809813
H 0.6698446316 -2.1536060834 -2.9523342955
H 0.7900349303 2.9218883853 -0.5962711388
