45
CONF7
C 3.8172744700 -0.2909831864 -2.0264660159
C 3.5585299671 0.4123269720 -0.6872515561
C 4.5718197047 -0.0261004242 0.3680725676
O 4.3338125754 -1.3779739104 0.7542323560
C 3.1286348919 -1.4830320540 1.4977468390
C 1.9528365242 -0.7980406196 0.8422896951
C 2.1582285676 0.1302837815 -0.1852008483
C 1.0564584879 0.7771599588 -0.7540810196
C -0.2258365009 0.5085082179 -0.2999806160
C -0.4254409932 -0.4163337429 0.7258011124
C 0.6585897279 -1.0671015157 1.2951972394
C -1.8958274328 -0.5900196503 1.0496643070
C -2.5209107359 0.6554629450 0.3368900452
C -1.5347005169 1.0867351189 -0.7995772811
C -1.4854540562 2.6145856736 -0.9195993642
C -1.8737814239 0.4968771357 -2.1793233530
C -3.9781583203 0.5123850131 -0.0779545293
C -2.3955651866 -1.9386629674 0.5034862306
C -2.1675464665 -0.5428660988 2.5577242133
H 3.7758979573 -1.3757505062 -1.8926200640
H 4.8047126403 -0.0261456701 -2.4202780146
H 3.0638444921 -0.0100288030 -2.7680049924
H 3.6648500398 1.4970979769 -0.8307001979
H 5.5919978123 0.0052311407 -0.0279131085
H 4.5184910040 0.6334839763 1.2512822899
H 2.9307112536 -2.5544068192 1.6099398266
H 3.2794483038 -1.0639217710 2.5105227225
H 1.2222120505 1.5006406990 -1.5504699890
H 0.5123430063 -1.7880796513 2.0979819399
H -2.4678332798 1.4639521927 1.0799791364
H -1.1546637693 3.0690172093 0.0194098849
H -0.7963444576 2.9277334381 -1.7110805816
H -2.4752689423 3.0139478797 -1.1687028389
H -1.9348297253 -0.5937391772 -2.1558874466
H -1.0913353591 0.7668913925 -2.8962132387
H -2.8245536258 0.8894461035 -2.5555645128
H -4.1227378202 -0.2805670095 -0.8171351400
H -4.6089103391 0.2818598638 0.7872935379
H -4.3521092862 1.4457107121 -0.5123131503
H -3.4610446661 -2.0789802520 0.7140591930
H -2.2403829299 -2.0291891725 -0.5743494349
H -1.8471350539 -2.7552895114 0.9844173998
H -1.7416644709 0.3614237279 3.0033454734
H -3.2454694704 -0.5529697120 2.7556961832
H -1.7331893300 -1.4105788138 3.0656348944
