45
CONF32
O -0.4784805055 -1.1207331050 -2.7548416544
C -1.8184349484 -1.5610188934 -2.5308163930
C -2.3995463808 -1.0880739268 -1.2175751942
O -1.5967985243 -1.6347416659 -0.1292703078
C -1.5124958324 -0.7161661040 0.9479159957
C -1.7998399345 -1.4610066116 2.2451542713
O -3.0826645348 -2.0768223076 2.2300334290
O -0.2102936199 -0.1129517473 1.0669831032
C 0.9110005476 -0.8590149034 0.6487813085
O 1.3093952785 -0.4821276017 -0.6657802410
C 1.6691856671 0.9194487133 -0.7968468004
C 1.9403366521 1.1905313504 -2.2669822057
O 0.7550680454 1.3996967687 -3.0330551144
C 2.8797822882 1.2028808026 0.0988313797
O 3.2917084519 2.5692565268 0.0235577099
C 2.5456418818 0.8230433223 1.5401675886
O 3.6880914249 0.9232169387 2.3925191695
C 2.0729102891 -0.6203836377 1.6112697486
O 1.6502175705 -0.9876458262 2.9202221659
C -2.4831313346 0.4229716270 0.5860124064
O -2.1947493478 1.6635885287 1.1953942747
C -2.4256723173 0.4076457491 -0.9451845898
O -3.5502844122 0.9884213931 -1.5864775242
H 0.0283991533 -1.2325206264 -1.9292183189
H -2.4344079313 -1.1699518190 -3.3472087518
H -1.8660400557 -2.6589503269 -2.5606774604
H -3.4248674112 -1.4806491056 -1.1363211069
H -1.7912409510 -0.7429330852 3.0705251666
H -0.9979798375 -2.1950145451 2.4132400842
H -3.0779888960 -2.7279205982 1.5150687417
H 0.6798951081 -1.9266442230 0.5899036516
H 0.8241103874 1.5454019195 -0.4712595016
H 2.5459683047 0.3663492482 -2.6748343131
H 2.5242086760 2.1122647594 -2.3388953532
H 0.2383184485 0.5712985091 -3.0283812288
H 3.7382603564 0.6111641628 -0.2441030566
H 2.5521539889 3.1216026977 0.3162532601
H 1.7414428981 1.4859041951 1.9021740470
H 3.9801276959 1.8444318946 2.3774289562
H 2.8967926757 -1.2702888462 1.2765135112
H 2.4058533846 -0.8537608623 3.5079210751
H -3.4937732111 0.1390470741 0.9014073540
H -1.2549706832 1.8454307508 1.0461694311
H -1.4891917581 0.8791906360 -1.2816430313
H -3.4860157369 1.9465329225 -1.4840754865
