65
CONF396
C -2.3955031535 5.0631261378 1.0771051387
C -2.2429169100 4.6583072784 -0.3872060320
C -2.2459817205 3.1368632358 -0.5927653221
C -2.1219289336 2.7655962719 -2.0769483770
C -1.0876216067 2.5166333105 0.1581728629
O 0.0764529693 2.8345543702 0.0014603967
O -1.4940794963 1.5513713894 1.0066667588
C -0.4568629785 0.8441826707 1.7567937822
C -0.1946501218 1.5632706546 3.0685835068
C 0.9346404523 0.8648264679 3.8419413872
C 0.7731199252 -0.6259123625 3.7984987892
C -0.0668057375 -1.2862389584 2.9785517587
C -0.9661757071 -0.5674679440 1.9906269465
C -1.1100435054 -1.3946474203 0.6958481611
C -1.7604341835 -2.7443681714 1.0644519075
C -0.9621172280 -3.4179824120 2.1484154329
C -0.1767307807 -2.7365866019 3.0001119830
C -1.9883635607 -3.6622116024 -0.1395322785
C 0.2388352285 -1.5535288676 -0.0446155776
C 0.2143937583 -0.8915819027 -1.4234025694
C 1.5597130828 -0.9164663792 -2.1263770716
C 2.0680814922 -2.3059684181 -2.4552167641
C 3.3054198731 -2.2090601014 -3.3307134246
C 2.9283688829 -1.5090151400 -4.6301284007
C 2.0715316248 -0.2737811840 -4.4729920276
O 1.9382117299 0.5398444971 -5.3659114653
O 1.3755973441 -0.0908776206 -3.3362063105
O 3.9105523013 -3.4799137394 -3.5829451030
C 2.3285744594 1.2790258618 3.3361789912
H -1.5605412315 4.6899405056 1.6812493699
H -2.4195268304 6.1517085962 1.1829323487
H -3.3223285288 4.6611025577 1.5005611938
H -3.0652028315 5.0761197389 -0.9799486763
H -1.3114967678 5.0654810085 -0.7985773613
H -3.1756286258 2.7207557638 -0.1897574056
H -2.9567783200 3.1986063742 -2.6356338200
H -1.1867559800 3.1556035118 -2.4902246347
H -2.1377739801 1.6804365187 -2.2194471087
H 0.4491505576 0.8341759198 1.1439690552
H 0.0700593346 2.6082151809 2.8751055801
H -1.1180589685 1.5524646486 3.6606017392
H 0.8693127023 1.1795472430 4.8931796044
H 1.3966964181 -1.2034882585 4.4811973491
H -1.9685179129 -0.4894592471 2.4407134731
H -1.8086614849 -0.8608239403 0.0392497994
H -2.7560907616 -2.5101328275 1.4757954851
H -1.0299367538 -4.5017208704 2.2272883132
H 0.4025014851 -3.2667332371 3.7538674692
H -1.0451455857 -3.9825528282 -0.5934720335
H -2.5295705777 -4.5628398853 0.1681045739
H -2.5815897076 -3.1526060956 -0.9059486565
H 1.0537882002 -1.1195848079 0.5495062382
H 0.4859454122 -2.6143425103 -0.1440086883
H -0.5297980621 -1.3842134703 -2.0631171005
H -0.0925670739 0.1568993955 -1.3212635162
H 2.3060621047 -0.3835584547 -1.5214497363
H 1.2858122536 -2.8829311487 -2.9693331988
H 2.3131443645 -2.8172351659 -1.5194464798
H 4.0749602195 -1.6297567548 -2.8060832216
H 2.3288968266 -2.1995204381 -5.2421315088
H 3.8054170238 -1.2360020868 -5.2223242364
H 3.2620586041 -4.0329310031 -4.0398968934
H 2.4766922605 2.3561928736 3.4644867815
H 2.4487636004 1.0363598883 2.2751198673
H 3.1134302010 0.7548289694 3.8906887551
