45
CONF2
C 2.5801043422 1.9714362736 -3.6417589591
C 2.7853093866 1.3990943732 -2.2478541175
C 1.4537100313 1.3814347830 -1.4931418001
O 1.0494398770 2.3799467954 -0.9009473342
N 0.7465339066 0.2297057112 -1.5729029614
C -0.5070665051 0.0661080939 -0.9070558984
C -0.6025202277 0.1589454840 0.6562034398
N -1.5879203938 1.2317202984 0.4863455980
C -1.5387466830 1.2219154551 -0.9018827351
O -2.1479739661 1.8488334763 -1.7357707958
C -2.7390956193 1.2403210423 1.3559680667
C -3.1112360366 -0.2698476116 1.6001851994
S -1.4544722234 -1.1552123996 1.6244472554
C -3.8209364931 -0.5249227162 2.9258747089
C -3.9636600848 -0.7664813246 0.4323045646
C -2.4154788071 1.9771577950 2.6467431855
O -1.3187019486 2.0226930352 3.1557194929
O -3.5128239243 2.5595373976 3.1601166179
O 3.3383990916 0.0854854617 -2.4130889765
C 3.8482619384 -0.5488221488 -1.3040985970
C 4.4084260938 -1.8066231012 -1.5443750175
C 4.9449181635 -2.5349593820 -0.4913541009
C 4.9278247099 -2.0223739175 0.8066796818
C 4.3662022041 -0.7713422069 1.0355987936
C 3.8216308747 -0.0246077285 -0.0103606775
H 2.1394401450 2.9684190120 -3.5660935762
H 3.5422113092 2.0471399190 -4.1541077302
H 1.9116088144 1.3296673970 -4.2226585341
H 3.4745726976 2.0328393004 -1.6768518898
H -0.9926519403 -0.8446541018 -1.2680333226
H 0.3222562265 0.4544910277 1.1575999763
H -3.5757379220 1.7377805839 0.8551871675
H -4.0316888589 -1.5924846119 3.0339618427
H -4.7752209749 0.0113533136 2.9381001768
H -3.2216260235 -0.2045398577 3.7821594883
H -4.1259385937 -1.8437635443 0.5199827793
H -4.9370522795 -0.2626980492 0.4493549147
H -3.4901516806 -0.5715934196 -0.5337140248
H -3.2713973708 2.9828277478 4.0028732583
H 4.4161487961 -2.1940541566 -2.5580907533
H 5.3796191761 -3.5104344308 -0.6867769611
H 5.3469928004 -2.5939532861 1.6278927049
H 4.3423639827 -0.3601687511 2.0400982513
H 3.3874248187 0.9450994508 0.2032450016
H 1.1464904858 -0.5542818302 -2.0686128009
