56
CONF6
C 1.5672953513 -4.8218311138 -0.1784388174
N 1.1146499747 -3.4478091160 0.0511938937
C 0.7933008796 -3.0954665736 1.4358143787
C 2.0113456727 -2.7205915087 2.2824852248
C 1.6683636458 -2.7658516237 3.7713508594
O 0.4749780400 -2.0509559237 4.1037494740
O 2.5202987464 -1.4423689303 1.8900788477
C 0.7868917675 -2.7171877677 -1.0345601310
O 0.8595575471 -3.1393266425 -2.1918366971
C 0.3538312919 -1.2839755013 -0.8278070310
C -0.9665493144 -0.9609077936 -0.5197332854
C -1.3954528210 0.3655614881 -0.4033497503
C -0.4787359145 1.3853113622 -0.6774836726
C 0.8521930699 1.1027055996 -0.9864702057
C 1.2446533095 -0.2338994602 -1.0678600102
I 3.2496635415 -0.6681810619 -1.6054242255
C 1.8205866147 2.2332990280 -1.2740685151
O 1.8869367420 2.7138811961 -2.4039622172
N 2.5462160097 2.6621024637 -0.2222852137
C 2.5524234028 2.0607329249 1.1081613598
C 1.5577737240 2.6883745436 2.0849467710
C 1.2672255497 1.7462264464 3.2561284818
O 0.6224204074 0.5444235118 2.8055590710
O 1.9933301377 3.9673174653 2.5489042441
I -1.1677967164 3.3893753758 -0.7044177462
N -2.7002320984 0.6642837017 0.0368083488
C -2.9410886738 1.0263424421 1.3215702293
O -2.0642387544 1.1866555697 2.1729874770
C -4.4103413469 1.1921522298 1.6811258314
O -5.2879209450 1.1437130965 0.5730096742
C -5.4657008767 2.4278560640 -0.0459361930
I -2.3927172771 -2.5056684248 -0.2597701255
H 0.7132934039 -5.4854600235 -0.3638737686
H 2.2344865659 -4.8542562761 -1.0411028876
H 2.1020112201 -5.1679425669 0.7080023061
H 0.0950340180 -2.2570913358 1.4546386758
H 0.2745327819 -3.9521954375 1.8844076399
H 2.8288007660 -3.4320529695 2.1092911499
H 2.5309675287 -2.3851801233 4.3376233491
H 1.4948705400 -3.8065492040 4.0673998240
H 0.5867986231 -1.1170537973 3.8534410946
H 1.8208711465 -0.7842819359 2.0570869184
H 3.1653146489 3.4415835000 -0.4025374879
H 2.3348543787 0.9958640269 1.0096229136
H 3.5662088374 2.1445227211 1.5178077866
H 0.6128745553 2.8803328521 1.5643567659
H 2.1997110127 1.4379517104 3.7449465892
H 0.6431310421 2.2709052632 3.9898809767
H -0.2776201587 0.7638594753 2.4844985054
H -4.5136299500 2.1240968187 2.2542552681
H -4.6616548299 0.3568531599 2.3467378695
H -5.9319799794 3.1297225181 0.6571923789
H -6.1241300402 2.2742404262 -0.9026626460
H -4.5087581322 2.8418572608 -0.3908169698
H -3.5032673340 0.4517688654 -0.5458007743
H 2.8497491471 3.8537643946 2.9833982232
