37
CONF8
C -4.8185207557 1.2280499800 -1.7293533127
C -4.8926265504 -0.1263246008 -2.0311370204
C -3.9799443898 -1.0126905629 -1.4684090808
C -2.9999677125 -0.5526635697 -0.5913138027
C -2.9228947088 0.8130649502 -0.2747127396
C -3.8359235073 1.6923913462 -0.8605837992
C -1.9647083242 1.3561416399 0.7516494755
O -1.9268920471 0.8943898305 1.8935908871
N -1.2232408269 2.4057762051 0.3304387358
C -0.2902207751 3.1141020699 1.1926141137
C 1.1706263659 2.9549125757 0.7334049364
C 1.5987423259 1.5223382378 0.6164635516
C 1.9019140084 0.7190034222 1.7266163642
C 2.2755268014 -0.6032007687 1.5657062051
C 2.3442620227 -1.1027663275 0.2695070959
C 2.0363378243 -0.2625422911 -0.7930729186
N 1.6742875164 1.0102005422 -0.6205903190
C 2.7012974155 -2.5420308642 0.0537319747
F 1.6822003158 -3.3670165039 0.4120887800
F 2.9924882104 -2.8113677079 -1.2366285670
F 3.7745013086 -2.9111418181 0.7956354981
Cl 1.8345024641 1.3780552537 3.3482433044
C -2.0307658418 -1.5536943475 -0.0196574435
F -1.9219145725 -2.6508097741 -0.8107390208
F -0.7793099502 -1.0500019387 0.1068952969
F -2.4067673064 -2.0057897284 1.2028821384
H -5.5255761656 1.9260921946 -2.1653018221
H -5.6540875163 -0.4976621638 -2.7084417700
H -4.0266550692 -2.0657005332 -1.7205007518
H -0.4269032890 2.7266188709 2.2037822797
H -0.5363780069 4.1820001585 1.1996313174
H 1.8053849594 3.4871921415 1.4496771164
H 2.5092320239 -1.2233090358 2.4243122324
H 2.0791104674 -0.6221948211 -1.8173909095
H -3.7882652521 2.7479522949 -0.6121743571
H 1.2975264408 3.4215383090 -0.2470700340
H -1.2821021433 2.6779434499 -0.6401609466
