51
CONF35
C 1.8593905943 -1.1790471907 1.2483762193
C 1.7100741914 0.2170871979 1.7940670948
C 0.6644136406 0.5283788807 2.6852391723
C 0.5618426420 1.8029800408 3.2430486596
C 1.4951866375 2.7861175450 2.9394005445
C 2.5182559754 2.4988824100 2.0460160360
C 2.6299393798 1.2325147237 1.4575160580
C 3.7330915280 1.0120010418 0.4888518924
C 3.4778454173 0.5479197937 -0.8078505141
C 4.5139736004 0.3883305944 -1.7226233644
C 5.8255611526 0.6851134952 -1.3559797156
C 6.0917514723 1.1489070287 -0.0695603431
C 5.0537194870 1.3145333381 0.8434671952
C -0.3590762273 -0.5045433518 3.0727915046
O -1.0106872042 -1.0893290875 1.9037712754
C -1.8472714973 -0.2798798282 1.2209170810
O -2.1902241256 0.8219308086 1.6040741102
C -2.2285195801 -0.9184149787 -0.0579736444
C -3.2915422175 -0.2531369999 -0.9251314626
C -1.8358826429 -0.2631544925 -1.3724540193
C -1.1170075174 1.0666982580 -1.3642688873
C -1.3823853715 -1.1890897226 -2.4783774762
C -4.2968123531 -1.0936097295 -1.5610812153
C -5.5609103273 -0.7496694524 -1.8187844665
C -6.5516289634 -1.6624676156 -2.4753926532
F -7.6304335154 -1.8963568283 -1.6852409483
F -7.0327663939 -1.1443179815 -3.6341491904
F -6.0064221985 -2.8603036077 -2.7701874616
Cl -6.2418113395 0.8140269436 -1.4252741386
H 1.5455474969 -1.9235302754 1.9844286776
H 1.2406674992 -1.3310021718 0.3568533896
H 2.8957633694 -1.3801534568 0.9713015386
H -0.2611116752 2.0219410416 3.9172128140
H 1.4140040978 3.7752040884 3.3789251887
H 3.2359486402 3.2680531827 1.7762039154
H 2.4575329731 0.3248492628 -1.1045113107
H 4.2957445386 0.0352683525 -2.7259893059
H 6.6340918244 0.5573235364 -2.0689786424
H 7.1106257078 1.3802762360 0.2259967165
H 5.2666570758 1.6706115243 1.8474095443
H -1.1171356687 -0.0699996457 3.7285623588
H 0.0947718449 -1.3656378801 3.5697870196
H -2.1921481588 -2.0029939130 -0.0586743847
H -3.6329710462 0.7058034157 -0.5483461838
H -1.2441131382 1.5549525645 -2.3360962801
H -1.4911247243 1.7362442804 -0.5881125238
H -0.0438878383 0.9099429682 -1.2025765491
H -1.6220936691 -0.7542373792 -3.4549091368
H -1.8363611925 -2.1800620976 -2.4159333804
H -0.2956609172 -1.3135040528 -2.4210557747
H -4.0064110771 -2.0979448142 -1.8547056206
