44
CONF59
C -4.1023324670 -0.1066484770 -0.9074527082
C -3.5707078284 0.3817534396 0.4505113953
C -4.6133414752 0.0757492524 1.5263004886
C -3.2406884365 1.8819722068 0.3715302996
C -1.9298549936 1.9542606396 -0.4234359116
C -1.1865011013 0.6205776171 -0.1287566140
C 0.2055334840 0.8497189805 0.4904220263
C 1.1555638976 1.4705642700 -0.5009514829
C 1.5405821351 2.8092655040 -0.4000086102
C 2.4016947968 3.3900580441 -1.3291189899
C 2.8813090081 2.6084943964 -2.3707516752
Cl 3.9762664468 3.3264053388 -3.5537609826
C 2.5248360224 1.2711018338 -2.5023685485
C 1.6623765723 0.7147063972 -1.5640654347
C -2.1531278431 -0.2123057572 0.7594818756
O -1.7872912961 0.0396616887 2.1242533833
C -2.0929644318 -1.7262550584 0.4954227042
N -0.7662158868 -2.2904290462 0.7036317865
C -0.1553677337 -2.6121241208 1.8601322020
N 1.0920771124 -3.0103129535 1.6290086186
C 1.1914505070 -2.9033052130 0.2750949689
N 0.0918255862 -2.4716206549 -0.3315183370
H -4.9720881243 0.4959327587 -1.1893222177
H -3.3597098358 -0.0154720604 -1.7059460991
H -4.4285241383 -1.1504690254 -0.8609120599
H -4.7719724702 -1.0024218551 1.6466914151
H -5.5735245180 0.5156350597 1.2365305570
H -3.0880284923 2.2669792638 1.3856555917
H -4.0552252857 2.4531914073 -0.0856547065
H -1.3265657579 2.8191063242 -0.1325372799
H -2.1284583595 2.0529237594 -1.4951102455
H -1.0431659445 0.0654921545 -1.0622480143
H 0.6249817484 -0.0985695726 0.8414450947
H 0.1080706680 1.5019654438 1.3626100747
H 1.1660251062 3.4144320985 0.4207527096
H 2.6941518685 4.4302809811 -1.2393412338
H 2.9161551344 0.6746885656 -3.3190174817
H 1.3822361064 -0.3311523126 -1.6574040304
H -4.3417037074 0.5042883974 2.4964149082
H -2.3704578245 -1.9538903922 -0.5342826798
H -2.7873873219 -2.2447121644 1.1664223563
H -0.6483046241 -2.5496223693 2.8207201828
H 2.0862667202 -3.1540705820 -0.2807979775
H -2.4300199299 -0.4005115346 2.6959214321
