22
CONF54
C 2.6087081459 -0.0731924810 0.2338333176
C 1.2639170734 0.6513192992 0.2330211151
C 0.0655233024 -0.3021134491 0.1579983836
C -1.2645504621 0.4086233188 0.4439494100
C -2.4701283762 -0.5205173232 0.3171917212
O -2.7663163294 -0.8111400336 -1.0554842703
O -1.4493013560 1.5606912951 -0.4034658333
O 0.0485395579 -0.9826299037 -1.1107076015
O 1.2894330861 1.5102447889 -0.9165958957
O 2.8029059863 -0.8420245641 1.4229023892
H 3.4014762157 0.6812446916 0.2080190975
H 2.6978658109 -0.6959593664 -0.6661644509
H 1.1812191616 1.2382343885 1.1614297215
H 0.1790186610 -1.0767113956 0.9280788359
H -1.2192148734 0.7802946178 1.4758293994
H -2.2875395768 -1.4387621779 0.8938088231
H -3.3572137453 -0.0252443988 0.7236583053
H -1.9543173866 -1.1967804159 -1.4243897071
H -1.8935416170 1.2363618555 -1.2033467724
H 0.3393194155 -0.3343715161 -1.7720933426
H 0.4116418723 1.9293580927 -0.9529395666
H 2.3725562432 -1.6969251054 1.3054669317
