78
CONF70
C -0.8904152550 -0.4617187150 -1.9744067419
C -0.1911555996 -0.6358035158 -3.3163941723
O -0.8635200865 -1.7983817857 -3.9092207521
C -1.4548271261 -2.5531946966 -2.9430943691
O -2.0070475581 -3.5941171478 -3.2106525110
C -1.2203004225 -1.8997614558 -1.6043000730
C -2.2824727533 -1.9797427931 -0.5045523741
C -3.6891234761 -1.6538159321 -0.9966618851
C -4.1730568638 -0.3435122469 -0.9881203803
C -5.4480487195 -0.0774319478 -1.4817017529
O -6.0362733433 1.1584276971 -1.5272958887
C -5.2705564101 2.2703623884 -1.0475213859
C -6.2548148746 -1.1058584907 -1.9799222472
O -7.5097132678 -0.8583741512 -2.4600274875
C -5.7717253105 -2.4195846076 -1.9730357645
O -6.6299241552 -3.3576473639 -2.4670739739
C -6.1643998826 -4.7121284500 -2.5034354328
C -4.4942031070 -2.6877407973 -1.4779901234
C -1.8650584609 -1.0448719982 0.6260592989
C -2.5375489157 -1.2063967450 1.8545438727
C -2.2750336451 -0.3067325265 2.8576455267
C -1.3919496134 0.7523908315 2.6789238988
O -1.3279473968 1.5092740343 3.8189535064
C -2.2106909828 0.8760896510 4.7711871764
O -2.8067185749 -0.2670469443 4.1169153962
C -0.7259937917 0.9386337836 1.4945999448
C -0.9536463315 0.0091034657 0.4532932367
C -0.1553576167 0.1912893784 -0.8237631544
O 1.1468782597 -0.4698876599 -0.7700514310
C 1.9597252995 -0.1671964435 0.3090981883
O 2.3442822369 1.2142677846 0.2119634854
C 3.1610221771 1.5820963514 1.3196964064
C 3.4792506551 3.0643176363 1.2616193860
O 4.3717214931 3.3648840516 2.3524951323
C 5.5672824671 2.5951903621 2.3429636100
O 5.3164555937 1.1964556993 2.3379241026
C 4.4715626259 0.8068917270 1.2429296807
C 4.1910374500 -0.6782588219 1.3319126642
O 5.3577968101 -1.4756131540 1.1194029193
C 3.1959770040 -1.0637115934 0.2356635239
O 2.7644831559 -2.4107097334 0.3940480062
C 6.4951634259 2.9924419493 1.2217215539
C 7.4169109858 2.2223558603 0.5638181527
C 8.2006120472 2.9604149751 -0.3647040384
C 7.8762266074 4.2886820298 -0.3970318285
S 6.5961116732 4.6547282745 0.7123313415
H -1.8238105018 0.0915598080 -2.1339952299
H 0.8696161377 -0.8788136689 -3.2112271006
H -0.3255709194 0.1985908221 -4.0058131959
H -0.3008838731 -2.3718405984 -1.2218328977
H -2.3013746713 -3.0044862834 -0.1162535447
H -3.5695091615 0.4539842760 -0.5731413613
H -4.3468179803 2.3855114906 -1.6263502547
H -5.0296778993 2.1493843277 0.0150967512
H -5.9037113863 3.1472242189 -1.1840735032
H -7.6680849964 0.0944560025 -2.3841837289
H -5.9504807704 -5.0828414319 -1.4939625774
H -6.9782268103 -5.2908652196 -2.9412515015
H -5.2680174786 -4.8037281009 -3.1281775728
H -4.1094275899 -3.6988361395 -1.4751983515
H -3.2585618900 -2.0064921661 1.9879151958
H -2.9998022525 1.5792643392 5.0571034115
H -1.6281116134 0.5350806686 5.6337984723
H -0.0383195520 1.7668609689 1.3550197669
H 0.0135575797 1.2593306674 -1.0044026985
H 1.4407692447 -0.3252801307 1.2710752945
H 2.6498646349 1.3534401327 2.2702410620
H 2.5909590344 3.6812410011 1.4151500085
H 3.9353703059 3.3144830957 0.2930118384
H 6.0323107522 2.7969552855 3.3139153556
H 4.9634932832 1.0313584000 0.2842763514
H 3.7448860707 -0.9049342182 2.3135975726
H 5.9163345994 -1.3997918401 1.9033330408
H 3.6722293756 -0.9148536026 -0.7470555717
H 3.5617579121 -2.9515005023 0.4787006101
H 7.5243403542 1.1587621539 0.7421562657
H 8.9727564097 2.5225665985 -0.9864144951
H 8.3011673630 5.0726234459 -1.0098097447
