24
CONF160
C 2.3774435550 1.1205454293 0.7300980849
C 1.1764629729 0.2268721552 1.0135369112
C 0.3284946928 -0.0065460216 -0.2395413575
C -0.8336009542 -0.9777351281 0.0317341191
C -1.8994866899 -0.9160722893 -1.0818495840
C -2.6827606149 0.3682098911 -1.0250572104
O -2.8042698090 1.0876024739 -1.9973604608
O -1.3221394568 -1.1059810672 -2.3655204755
O -0.3531998838 -2.3066538649 0.1973657136
O 1.1962737319 -0.5369507860 -1.2467201841
O 0.3755228674 0.7971753770 2.0585563471
O 3.1545275784 1.3302666728 1.9116588098
H 3.0354657252 0.6496089723 -0.0032426231
H 2.0238663125 2.0803122420 0.3160384220
H 1.5238204758 -0.7366677257 1.4052162078
H -0.0871147487 0.9656284744 -0.5605966855
H -1.3224016654 -0.6949509332 0.9711401578
H -2.6265568812 -1.7200312074 -0.8644348937
H -3.1592730645 0.6075883447 -0.0555865509
H -1.6741456678 -0.3967093238 -2.9324083890
H 0.3604901283 -2.4261133420 -0.4485507223
H 0.6404835050 -0.6788748184 -2.0311392212
H 0.0330962034 1.6472348975 1.7439867211
H 2.5390011904 1.6222412706 2.5983698748
