35
CONF32
C -0.7282732623 -0.9737681457 3.0605101364
C -1.3114669568 -1.3861193564 1.7453374496
C -2.1671769784 -2.4327483675 1.5602225251
S -2.6568394287 -2.5846199137 -0.1000159482
C -1.7058922632 -1.2121337136 -0.5806242915
C -1.0550639633 -0.6943382183 0.5123788595
N -0.1692973015 0.4188385203 0.4462513745
C 1.2684973819 0.2257793257 0.1072820847
C 1.6822548893 -1.2364353972 0.1545744018
C 1.5496496769 0.8399848770 -1.2656853465
O 2.9599790000 0.8938634275 -1.4279397961
C 3.3241618952 1.4802914753 -2.6703643708
C -0.5527094760 1.6665853285 0.8612825520
O 0.2283267763 2.6067319969 0.9609158131
C -2.0285716219 1.8634944848 1.1807558479
Cl -2.9253911179 2.2433146391 -0.3623287799
C -1.6525252511 -0.7658933717 -2.0009752808
H 0.3602416398 -0.8719043824 3.0010446492
H -0.9653050151 -1.7054747056 3.8356775146
H -1.1190869231 -0.0018975978 3.3859110229
H -2.5430864220 -3.1243631498 2.3021008345
H 1.8440170118 0.7993335431 0.8435941480
H 1.5169439874 -1.6776864442 1.1404559011
H 1.1372274685 -1.8300165213 -0.5861186884
H 2.7485364321 -1.2953785552 -0.0749865517
H 1.0988239153 0.2173106912 -2.0573060198
H 1.1164741795 1.8498243277 -1.3216275772
H 4.4154669100 1.4880244769 -2.7167321024
H 2.9509422165 2.5124930398 -2.7476445416
H 2.9307117930 0.8974808843 -3.5173793809
H -2.1253207121 2.7352098028 1.8264876999
H -2.5131038279 0.9883372590 1.6137623833
H -2.6427913184 -0.7942062864 -2.4642192996
H -1.2849232494 0.2613153148 -2.0492435027
H -0.9854301056 -1.4012289809 -2.5953532330
