49
CONF84
C -2.8858572645 0.9013890438 4.2171487231
C -3.3292374085 0.1046387212 3.0081112284
C -2.2848017839 -0.5836571278 2.1058269921
C -3.1080655378 0.6355594087 1.6236842090
C -4.1097143855 0.3429063344 0.5232389152
C -2.4215122195 1.9680973178 1.4115709556
C -0.8459417224 -0.5034812930 2.3402657560
O -0.1953895421 0.3874203050 2.8471335332
O -0.2420933618 -1.6574815766 1.8726838759
C 1.1977385779 -1.6590397263 1.9815692672
C 1.5945183624 -3.0635430165 1.8693490246
N 1.9473690148 -4.1589534921 1.7730635061
C 1.8591158490 -0.8242933769 0.9018735414
C 2.8852198937 0.0555041754 1.2372354562
C 3.4802428819 0.8195601167 0.2366202298
C 3.0603625749 0.7153956357 -1.0851001409
C 2.0372548471 -0.1788507200 -1.4026056335
C 1.4348553264 -0.9550088886 -0.4179314179
O 1.5186397878 -0.2989071345 -2.6736887558
C 2.3418702438 -0.0608707617 -3.7669110816
C 1.8353498366 0.7452046827 -4.7795962926
C 2.5945956652 0.9427952344 -5.9307704182
C 3.8467064676 0.3462752024 -6.0602814452
C 4.3375703900 -0.4607872627 -5.0343678066
C 3.5866590371 -0.6746298743 -3.8823346877
C -4.5598039692 -0.7284326186 3.3143934289
H -1.9834008146 1.4847188108 4.0490374604
H -2.7002945026 0.2252870336 5.0588764174
H -3.6938680857 1.5825402752 4.5080207789
H -2.5989801587 -1.5322171774 1.6832970780
H -4.5371912677 -0.6582680282 0.5868349510
H -4.9286221848 1.0704974991 0.5662038538
H -3.6241734597 0.4411923327 -0.4534916686
H -1.6485270822 2.1825610953 2.1466790219
H -3.1714294135 2.7664754975 1.4511547401
H -1.9602754186 1.9926288602 0.4180581995
H 1.5016106039 -1.2950432036 2.9702691731
H 3.2050373975 0.1519575808 2.2696634404
H 4.2704995056 1.5189907454 0.4893761560
H 3.5151524494 1.3244507245 -1.8583256192
H 0.6389823803 -1.6415918464 -0.6884879662
H 0.8598769112 1.2048420793 -4.6599827549
H 2.2045198459 1.5706849895 -6.7256226197
H 4.4368356500 0.5059006658 -6.9566098570
H 5.3083113318 -0.9366142288 -5.1322233367
H 3.9579589316 -1.3087974026 -3.0838353498
H -4.3858939690 -1.3230705271 4.2173594537
H -4.8259894194 -1.4133652484 2.5085472291
H -5.4157911625 -0.0705700422 3.5046892426
