27
CONF435
C 3.1463896810 -0.1173119375 -0.0905527955
C 3.8459954790 -0.3891074878 1.2411692675
C 5.3534573304 -0.1817978948 1.1776463129
O 5.7249314084 1.1867186811 0.9378740858
C 1.6427707707 -0.3847733668 0.0206488723
C 0.9076503251 -0.0645722250 -1.2546658685
C -0.6055282234 -0.4488747086 -1.2950959677
C -1.4791143218 0.1137510772 -0.1320868333
C -3.0214457026 0.0325331712 -0.3742350306
F -3.3739640796 -1.2015363504 -0.7601225706
F -3.4089688418 0.9102103351 -1.3063383391
F -3.6546799451 0.3231764781 0.7717432703
F -1.1739570671 1.4144179976 0.0876315776
F -1.2067715847 -0.5926076881 0.9915252288
F -0.6979370041 -1.8030799770 -1.2660922594
F -1.1287936599 -0.0125143637 -2.4717969330
F 1.4614619341 -0.7361933056 -2.3206508086
F 0.9950099835 1.2700871238 -1.5589094878
H 3.3044735925 0.9245113376 -0.3925367158
H 3.5801706341 -0.7557135190 -0.8685517068
H 3.4261701789 0.2562050293 2.0234660258
H 3.6605564180 -1.4280550883 1.5457511584
H 5.7939994318 -0.8353328236 0.4100619788
H 5.8023739945 -0.4445241723 2.1407100548
H 5.5186947223 1.3953451970 0.0190927186
H 1.2125816020 0.2258431452 0.8216519655
H 1.4561531525 -1.4355681087 0.2682707495
