45
CONF1
C 0.4920175551 -3.4967393360 -0.6729553089
C 1.5419721748 -2.7724426548 0.1809973471
C 2.2866526893 -1.6617189619 -0.5641649723
C 3.2125406464 -0.8408294117 0.3431937873
C 2.4859570506 0.1477546403 1.2650587560
C 1.8846121662 1.3455615270 0.5276889935
C 1.2013619656 2.3311585995 1.4751884694
C 0.6852828635 3.5808278155 0.7844650519
O -0.2975651082 3.2501131075 -0.2459018470
C -1.5752801923 3.0981433968 0.1522978798
O -1.9521010860 3.2638106806 1.2979118593
C -2.4744840249 2.6775219327 -0.9820064520
C -3.0990616262 1.3041407224 -0.6895203885
C -2.0456386115 0.2118564714 -0.5171589759
C -2.6492241935 -1.1679026005 -0.2501816444
C -1.5959888197 -2.2245212851 0.0979835227
C -0.7034500631 -2.6250868959 -1.0795999555
H 0.1215460825 -4.3719936090 -0.1219623727
H 0.9805110313 -3.8826135142 -1.5780393492
H 1.0660766489 -2.3641406774 1.0806357962
H 2.2789459639 -3.5047134311 0.5367005195
H 2.8759121049 -2.1184955969 -1.3703887469
H 1.5723480351 -0.9897951577 -1.0546717948
H 3.8105604590 -1.5320130206 0.9523960837
H 3.9246448953 -0.2775402661 -0.2746549434
H 1.6936515540 -0.3685478600 1.8244405649
H 3.1953442415 0.5205539088 2.0159119895
H 2.6802916073 1.8663280620 -0.0239255400
H 1.1570687656 1.0044638270 -0.2182963799
H 1.9153464290 2.6638129950 2.2408707334
H 0.3769388448 1.8384350102 2.0056120351
H 0.2328411152 4.2777487948 1.4942268736
H 1.4854070528 4.0837084702 0.2349182149
H -3.2617829405 3.4341986427 -1.0734252414
H -1.9090010214 2.6517366218 -1.9170046160
H -3.7718865433 1.0475546061 -1.5162519919
H -3.7134752650 1.3737833061 0.2161357508
H -1.4102382005 0.1850075458 -1.4116554392
H -1.3836553398 0.4720515257 0.3225709213
H -3.3600463661 -1.0828572601 0.5824388362
H -3.2303608309 -1.4916362196 -1.1253473927
H -0.9819268865 -1.8329141216 0.9197643265
H -2.0897847191 -3.1257814608 0.4850436869
H -1.3143336900 -3.1683242969 -1.8126803055
H -0.3385466097 -1.7296645771 -1.5957975850
