37
CONF2
C -1.6100852735 0.3054275885 1.9687623015
C -1.6674906222 0.8339100728 0.5304945631
C -3.0709767482 1.4202953136 0.2897220216
C -0.6514272859 1.9776561254 0.3863153372
C -1.4812738068 -0.2703255233 -0.5455535266
C -0.2984077169 -1.2854709606 -0.5533429944
C -0.4722690708 -2.3591595847 0.5328504322
C -0.3799389614 -2.0381404122 -1.9015858738
C 1.0544796058 -0.5826575624 -0.4616112036
C 1.9194317541 -0.7355716241 0.6251124005
C 3.1309479497 -0.0565616421 0.7046742338
C 3.5118935535 0.7992947407 -0.3226772899
C 2.6743293634 0.9629090065 -1.4257794929
C 1.4696640291 0.2762675427 -1.4855923387
O 4.7128920614 1.4459039452 -0.2013933567
H -1.9173502695 1.0939487059 2.6650939506
H -0.5945854394 0.0061837119 2.2437970081
H -2.2802633761 -0.5491409030 2.1119284934
H -3.1660929822 1.8065798369 -0.7314045047
H -3.2656348266 2.2466374580 0.9818161113
H -3.8483337881 0.6627007144 0.4394198764
H -0.6441255278 2.3727547911 -0.6357032496
H -0.9221333009 2.7972869140 1.0618660553
H 0.3645971812 1.6614494823 0.6314822732
H -1.4729821920 0.2473933222 -1.5148794455
H -2.3961872243 -0.8807752567 -0.5483343253
H 0.3019695815 -3.1277499783 0.4343149892
H -0.4324777735 -1.9677153807 1.5486804924
H -1.4437916388 -2.8479718983 0.4072792603
H -1.3363318947 -2.5667015264 -1.9816316725
H 0.4281818254 -2.7726373838 -1.9756878124
H -0.3018103358 -1.3621243562 -2.7568407913
H 1.6538735559 -1.3950525649 1.4430204948
H 3.7890788940 -0.1855820750 1.5571766750
H 2.9625478169 1.6278658129 -2.2369304764
H 0.8309979607 0.4381943335 -2.3478468544
H 4.8490851294 2.0006784996 -0.9774066632
