59
CONF211
C 4.6034726222 1.7397706235 4.8486097573
C 3.9396012714 2.9106934357 4.0682726825
C 4.1934478654 2.6144872038 2.5757806786
C 4.4079495284 1.0888075675 2.5066822102
C 5.2394567053 0.8380794625 3.7738929497
C 5.1156509676 0.6302632391 1.2392746430
C 4.2940723325 0.7880288556 -0.0121026130
O 4.8069566127 0.9416380403 -1.1124912041
N 2.9031110550 0.7324768672 0.1153202718
C 2.2393150941 0.4821822742 1.3195616685
O 1.0207060053 0.3687154555 1.3423276594
C 3.0762729982 0.3390741331 2.5640831721
C 2.0913319871 0.8567508391 -1.1105863200
C 1.8824038509 -0.4982788416 -1.7807018769
C 1.0870746814 -0.3901747853 -3.0833352695
C -0.2913215486 0.2595675465 -2.9306196015
N -1.0893065062 -0.3054427528 -1.8366119886
C -1.4760385731 -1.6939076698 -2.1074079469
C -2.2805611784 -2.2601691412 -0.9406315556
N -3.4643401615 -1.4341638143 -0.6974203024
C -3.0942720907 -0.0426446443 -0.4330390399
C -2.2841579719 0.5121407688 -1.6011028588
C -4.6817878263 -1.7594969606 -1.2299948394
N -4.8410773184 -3.0195929636 -1.7044727840
C -6.0515826321 -3.3319649159 -2.1633786660
C -7.1160610949 -2.4379836018 -2.1758431414
C -6.8439935659 -1.1704053779 -1.6742906471
N -5.6504137626 -0.8112066530 -1.2052337643
H 3.8504583601 1.1852788560 5.4174486361
H 5.3490734989 2.0917430510 5.5665246900
H 2.8660124816 2.9493658761 4.2766505276
H 4.3534628881 3.8817246892 4.3530388592
H 5.1153397439 3.1058643192 2.2423777485
H 3.3811852943 2.9650737633 1.9293374405
H 6.2704337793 1.1565095957 3.5748995576
H 5.2646061757 -0.2203586413 4.0538478975
H 6.0545175224 1.1679332851 1.0779882271
H 5.3627957872 -0.4390707345 1.3189090334
H 3.2640359575 -0.7370654388 2.6935977679
H 2.4489603290 0.6549320761 3.4019035073
H 2.6112169245 1.5447688142 -1.7811522848
H 1.1367613476 1.2966420224 -0.8179780449
H 2.8604212721 -0.9451312636 -1.9930617904
H 1.3630987366 -1.1613761633 -1.0796858815
H 0.9921240606 -1.3892534089 -3.5230800253
H 1.6506014727 0.2088316465 -3.8101047835
H -0.8305273924 0.1879980183 -3.8960468762
H -0.1683498784 1.3297249224 -2.7220712264
H -2.0794028544 -1.7707081321 -3.0355335586
H -0.5770542856 -2.3044509547 -2.2415602354
H -1.6659733378 -2.2427283333 -0.0312792023
H -2.5788826855 -3.2873158803 -1.1445379467
H -2.4828619307 -0.0245800966 0.4783466680
H -2.9331061085 0.5544607060 -2.5001750957
H -1.9694623372 1.5363712638 -1.3671873124
H -6.1733345150 -4.3462794714 -2.5427110378
H -8.0923135575 -2.7094961449 -2.5571562487
H -7.6186248521 -0.4043459299 -1.6506082122
H -3.9888733878 0.5560092615 -0.2692135319
