51
CONF113
C 4.4603752332 1.3915106134 4.5676789509
C 3.9008291696 0.8911247468 3.2640814669
C 4.4844469927 -0.1971177056 2.6072376619
C 3.9723527393 -0.6650016614 1.4011680892
C 2.8627218517 -0.0573076273 0.8130288917
C 2.2768374935 1.0292110030 1.4625259698
C 2.7881161188 1.4943334959 2.6710455604
C 2.3335472099 -0.5487225323 -0.5229783114
C 2.7143144775 0.3993543009 -1.6597000587
N 0.8792464686 -0.7091701528 -0.5041500874
C 0.2752923704 -1.7590438288 0.0819350584
O 0.8892914271 -2.6971907990 0.5983479719
C -1.2619864811 -1.7584494132 0.0978341768
C -1.7613541924 -1.7510759950 1.5603973502
C -1.3244323077 -0.4978893444 2.3233893176
C -3.2750629328 -1.9535546110 1.6263596096
N -1.8637151848 -0.6855248341 -0.6738748331
C -2.0973622300 -0.8043000119 -2.0083131080
O -1.7566236867 -1.7607282116 -2.6906348518
O -2.7383232094 0.2958444726 -2.4734615764
C -3.0903188249 0.2996407719 -3.8977265978
C -3.1968125852 1.7598783284 -4.2876883032
C -4.3857172512 -0.4661264128 -4.0952421310
H 3.8434765152 2.1934927453 4.9801692796
H 4.5167370456 0.5850917807 5.3063899240
H 5.4770207988 1.7777803366 4.4340988341
H 5.3458286711 -0.6900060121 3.0512997802
H 4.4352048185 -1.5192025057 0.9129485394
H 2.3139413522 2.3390484551 3.1640832729
H 2.7647799377 -1.5374969895 -0.7144919731
H 2.3644777941 0.0100215008 -2.6207808088
H 2.2758521781 1.3900354643 -1.4964996143
H 3.8007186251 0.5110307564 -1.6980459376
H 1.4073010251 1.5154487489 1.0275710084
H -1.5567309180 -2.7117276049 -0.3576110379
H -1.2748992687 -2.6163489260 2.0239442138
H -1.6299109316 -0.5766791020 3.3711241174
H -0.2373311382 -0.3677820711 2.2977626380
H -1.7862669997 0.4115623005 1.9207414898
H -3.5774597392 -2.8546534720 1.0827971107
H -3.5936350977 -2.0578088652 2.6681314532
H -3.8122188977 -1.1004975621 1.1979361953
H -2.2297462430 0.1276817986 -0.2024153951
H -2.2729888664 -0.1854944204 -4.4400546351
H -3.9850444398 2.2553192358 -3.7119217553
H -2.2508976349 2.2806501286 -4.1157857138
H -3.4463784263 1.8346826173 -5.3499424212
H -4.2820314207 -1.5030242214 -3.7653750478
H -4.6531604505 -0.4667829893 -5.1563933570
H -5.1964210182 0.0094638615 -3.5336966583
H 0.3021136915 0.0366260062 -0.8665662264
