50
CONF185
C -1.1332292877 -0.0122374046 -2.2112306596
C -1.8134794076 -1.3535499435 -2.0693171223
C -1.1031074006 -2.6310463176 -2.4592248615
C -1.3866451380 -2.3279866822 -0.9737498675
C -0.3046173280 -1.9951536443 -0.0372702470
O 0.7852305607 -1.5263068088 -0.2869790563
O -0.7085801745 -2.2794881076 1.2415844176
C 0.2288639299 -1.8673742194 2.2731520199
C -0.1022014349 -2.6782098257 3.4439019585
N -0.3432722252 -3.2964353157 4.3887120876
C 0.1038065129 -0.3879610109 2.5663719395
C 1.1996577351 0.4427393058 2.3575531443
C 1.0668539236 1.8093892694 2.5859240104
C -0.1420767761 2.3491719132 3.0200817051
C -1.2288333817 1.5027712401 3.2208473774
C -1.1154199890 0.1347371245 2.9992489358
O 2.2026210893 2.5733167075 2.4220709441
C 2.0747743357 3.8696059828 1.9413306450
C 2.8408707571 4.8524706362 2.5571724711
C 2.8042350420 6.1517700805 2.0567238699
C 2.0050062268 6.4625864612 0.9590276563
C 1.2450668664 5.4629659128 0.3529796290
C 1.2778835203 4.1583737667 0.8360809844
C 0.2578417972 -2.6113034171 -2.9965252152
C 0.7695362159 -3.5185801871 -3.8346501320
C 0.0157495662 -4.7374119293 -4.3151632383
F 0.7615534618 -5.5647226378 -5.0650534549
F -1.0656687158 -4.3885149584 -5.0629476510
F -0.4582380853 -5.4642020743 -3.2702688544
Cl 2.3894690054 -3.3365123084 -4.4697431532
C -3.3003467838 -1.3115350435 -2.3448798206
H -1.6396747375 0.7185547993 -1.5721203895
H -0.0796191603 -0.0283904197 -1.9347834749
H -1.2187664566 0.3282282615 -3.2484231198
H -1.7569815728 -3.4095496461 -2.8357718776
H -2.1854631174 -2.9164486831 -0.5360431951
H 1.2510824537 -2.1096128704 1.9613001283
H 2.1467593480 0.0460336240 2.0076216529
H -0.2302351114 3.4149044737 3.2008936700
H -2.1702494641 1.9185890802 3.5647459636
H -1.9661754993 -0.5203287242 3.1584846296
H 3.4545816932 4.5932375736 3.4134514782
H 3.4003453137 6.9235715282 2.5333673221
H 1.9759316983 7.4769012529 0.5750870799
H 0.6275674463 5.6951132279 -0.5090884703
H 0.6964487897 3.3736121020 0.3630365549
H 0.9000329045 -1.7864061070 -2.7121973542
H -3.4771511615 -0.9464272339 -3.3623182057
H -3.7578704822 -2.2996861914 -2.2473258379
H -3.7938673976 -0.6282622228 -1.6456770005
