31
CONF16
F 1.1908363068 -1.7324542053 1.4764645051
C 1.5649310446 -0.8205706097 0.5604195177
F 1.9284140550 0.3178159564 1.1899491353
C 0.3770842277 -0.5413967055 -0.4127842438
F 0.8609687994 0.0345620700 -1.5340277575
F -0.1983138116 -1.7220921556 -0.7300087084
C -0.7151000710 0.4026106659 0.2038885482
F -0.2607435327 1.6752543898 0.1616478024
F -0.9169330977 0.0464400523 1.4937987497
C -2.0891735596 0.3347231577 -0.5491827331
F -1.8599531886 0.3030216955 -1.8809196911
F -2.7286537140 -0.7995919224 -0.1840388026
C -3.0220473188 1.5558028332 -0.2410776234
F -2.9621590136 1.8500054028 1.0788594958
F -2.5994458848 2.6212589362 -0.9530158666
C -4.5246802081 1.3109738787 -0.5997336579
F -5.1801637021 2.4774052830 -0.5290344336
F -5.0884716627 0.4534941019 0.2573551679
F -4.6348142285 0.8267185292 -1.8446530224
S 3.1125263408 -1.4944131785 -0.3439818144
O 3.7332468344 -0.3467767021 -1.0013333358
O 2.6607840369 -2.7008405678 -1.0354705379
N 4.0239258489 -1.9366482568 0.9732841602
C 5.2402694654 -1.1855777976 1.3361714814
C 6.4697314502 -1.5992732645 0.5394636250
H 4.0633782229 -2.9454086786 1.0695987775
H 5.0241164245 -0.1235496071 1.1942752199
H 5.3928684397 -1.3440080291 2.4099188610
H 6.3258978066 -1.3961984574 -0.5248639372
H 6.6815331885 -2.6658436655 0.6671498600
H 7.3447771723 -1.0388270028 0.8829180704
