65
CONF330
C -2.8480536635 4.5176671515 -2.6491444167
C -2.1975338845 3.8246390857 -1.4535893817
C -2.0835690050 2.3060283490 -1.6278611003
C -1.1194138040 1.9040417752 -2.7592164956
C -1.5879628666 1.6583146273 -0.3532288624
O -0.8331980103 2.1803397281 0.4458156632
O -2.0446814081 0.3944727832 -0.2397315361
C -1.5732739177 -0.3909634078 0.9014563004
C -2.4893808232 -0.1642890013 2.0917600896
C -1.9670630776 -0.9314515054 3.3157201138
C -1.5465687160 -2.3190827788 2.9333635076
C -1.3612940884 -2.7467159144 1.6697377869
C -1.5800446699 -1.8473538212 0.4655014701
C -0.5454542382 -2.1701294304 -0.6357513619
C -0.7440110382 -3.6391086476 -1.0627873965
C -0.6755360040 -4.5416700885 0.1385600721
C -0.9428043328 -4.1099870232 1.3826257795
C 0.2084316808 -4.0870979841 -2.1746099256
C 0.8906164258 -1.8385075435 -0.1696915955
C 1.4330962536 -0.5721771449 -0.8354840402
C 2.7098103668 -0.0389586510 -0.2144989518
C 3.2976576119 1.1326010468 -0.9749708354
C 4.4471937241 1.7320228432 -0.1839774972
C 3.9047085387 2.2563597859 1.1319894237
C 2.9542489374 1.3274424299 1.8483068739
O 2.6618934353 1.4807015821 3.0182446349
O 2.3600525356 0.3285220902 1.1712261645
O 5.0563162582 2.8438734213 -0.8493924631
C -0.8167503847 -0.1909544882 4.0218826030
H -3.8342776398 4.0898768514 -2.8614337288
H -2.9815901982 5.5845222363 -2.4467634795
H -2.2395554075 4.4277108205 -3.5538318367
H -1.1981162002 4.2371786954 -1.2740520751
H -2.7865619762 4.0285288427 -0.5513712884
H -3.0724523692 1.8869666082 -1.8498814576
H -1.0367078779 0.8158056568 -2.8363588177
H -1.4778401800 2.2854105542 -3.7183551985
H -0.1219102886 2.3166855457 -2.5720511560
H -0.5573611288 -0.0623938581 1.1384308730
H -2.5542005981 0.9056229765 2.3153511464
H -3.4937695845 -0.5182709469 1.8286641028
H -2.7899528770 -1.0137985297 4.0398570079
H -1.3633927940 -3.0167775343 3.7507221503
H -2.5788284030 -2.0680260235 0.0565055277
H -0.7807380905 -1.5464883732 -1.5081833144
H -1.7638892382 -3.7053900151 -1.4766403143
H -0.3906377294 -5.5799461115 -0.0232425016
H -0.8559890202 -4.7899701608 2.2281258970
H 0.1636406254 -3.3947788422 -3.0219697354
H 1.2451940743 -4.1388101584 -1.8284563463
H -0.0695451837 -5.0836393608 -2.5327982797
H 0.9061495837 -1.7162327103 0.9192676836
H 1.5719491844 -2.6678612414 -0.3844564101
H 1.6322157665 -0.7707734889 -1.8964431275
H 0.6888712264 0.2324631738 -0.8038367460
H 3.4559182717 -0.8400403915 -0.1223781458
H 2.5295397178 1.8979746765 -1.1500580180
H 3.6460797650 0.7660405822 -1.9470093782
H 5.2011502786 0.9525287055 0.0090773809
H 3.3299536642 3.1715984722 0.9308008003
H 4.7001385247 2.5247765758 1.8318323263
H 5.4896037571 2.5095564857 -1.6450825112
H -0.4581804292 -0.7649059778 4.8823510465
H -1.1522482188 0.7888273995 4.3775217772
H 0.0299082423 -0.0425514145 3.3438912964
