73
CONF2477
C -0.8826117666 3.1375464773 -0.7822347628
C -1.7276291621 2.3916152967 0.2270231284
O -2.9825246466 2.0863586714 -0.4289054520
C -3.9039781006 1.3614190845 0.3584565917
O -3.4236081663 0.0718163744 0.7066500655
C -3.4569762680 -0.8849669323 -0.3552537053
C -4.6550929206 -1.8112995572 -0.1758285682
O -5.8349872918 -1.0367073387 -0.3751056243
C -4.6015112510 -2.9985813889 -1.1328605920
O -5.6883840620 -3.8561992429 -0.7703822476
C -3.2516904411 -3.7060021276 -0.9871880199
C -3.0470459992 -4.8295142902 -1.9826754601
O -1.8041565997 -5.5019240146 -1.7754145683
O -2.2122297258 -2.7437936560 -1.2561456671
C -2.1752853375 -1.7101233475 -0.2909832117
O -1.1008532870 -0.8612914844 -0.6281652517
C 0.1682002586 -1.2586243699 -0.3197882018
C 0.4791971833 -2.5274139717 0.1713833174
C 1.8089332806 -2.8124633373 0.4609739022
O 2.1202995835 -4.0394489416 0.9060266877
C 2.8337047724 -1.8466994911 0.2651341577
C 4.2193600023 -2.1882801743 0.4400099473
O 4.5915629530 -3.3120716439 0.8345693214
C 5.2156459326 -1.1228107123 0.0682030479
C 4.6333035122 0.2665518945 0.2924131110
O 3.3765227144 0.4017191078 -0.4474613877
C 2.4604936509 -0.5723086383 -0.2310065317
C 1.1427271154 -0.2766879503 -0.5276017660
C 5.5367298393 1.3768922673 -0.1522409565
C 5.8568083294 1.5423068157 -1.5039608229
C 6.7093135932 2.5562450519 -1.9147609048
C 7.2667086229 3.4180850811 -0.9657376538
O 8.1008507546 4.3960615566 -1.4226035423
C 6.9613782258 3.2631765583 0.3867552422
C 6.0934979348 2.2496604655 0.7817138169
C -4.2313761994 2.0676876932 1.6735821348
O -4.9799507175 3.2348368277 1.3353070186
C -2.9455335539 2.4282143140 2.4087630268
O -3.3188078125 3.1957786313 3.5572061098
C -2.0037335412 3.2038793440 1.4952638911
O -0.7960841314 3.5351241784 2.1918477776
H -0.7370361760 2.5257638742 -1.6772118616
H -1.3712316802 4.0741894629 -1.0698390553
H 0.0964894017 3.3682990892 -0.3554287229
H -1.2364557943 1.4488444173 0.5131185814
H -4.8059902964 1.2865836965 -0.2586606002
H -3.5005343012 -0.3843208488 -1.3320801786
H -4.6294412453 -2.2065487412 0.8543162127
H -6.5845669935 -1.6383734816 -0.2668755728
H -4.7140786431 -2.6381266457 -2.1659601219
H -5.9985100223 -4.3128785274 -1.5615141724
H -3.1430988875 -4.0927495164 0.0396371487
H -3.1136782331 -4.4227089749 -3.0033172622
H -3.8353296445 -5.5762339711 -1.8518099686
H -1.1031517723 -4.8448461767 -1.8818950247
H -2.0366460745 -2.1220643020 0.7228280136
H -0.2626675340 -3.3044908569 0.3001304822
H 3.1147323465 -4.0524806701 1.0013890699
H 6.1281451863 -1.2483882800 0.6573668607
H 5.4774512806 -1.2577637112 -0.9907679799
H 4.3905813836 0.3900027243 1.3569067406
H 0.8648911077 0.7043395312 -0.8926299619
H 5.4276185504 0.8771380018 -2.2475936998
H 6.9521680746 2.6915251187 -2.9638146678
H 8.4121118624 4.9291526249 -0.6781563599
H 7.3923674539 3.9373237798 1.1220630294
H 5.8499200584 2.1389597721 1.8347836254
H -4.8350940486 1.3893918642 2.2945248292
H -4.9894199917 3.7938819738 2.1251966890
H -2.4446280592 1.4955817194 2.7176073042
H -2.5135918643 3.6184654318 3.8877081055
H -2.4599935590 4.1625945224 1.2223924984
H -0.3425181147 2.7083473304 2.4126097279
