22
CONF57
C 2.2792994223 0.5038217405 0.2295317208
C 0.7943664672 0.5760618156 -0.0836454926
C -0.0012710392 -0.5400711249 0.6163987990
C -1.5169524553 -0.3042860659 0.7451985705
C -2.2914658297 -0.1566406304 -0.5646293385
O -2.1044671289 1.1352247121 -1.1549911532
O -1.7571054803 0.8254534462 1.5872322420
O 0.1615524882 -1.7827810624 -0.0805304726
O 0.5683812778 0.5544943269 -1.5065168602
O 2.7658268341 -0.8019888300 -0.1270097845
H 2.4222167072 0.6924301904 1.3027836279
H 2.8067864772 1.2803702649 -0.3405911297
H 0.4396203152 1.5500282371 0.2747218803
H 0.3849775694 -0.6204083239 1.6441575639
H -1.9151087301 -1.1872113982 1.2628548839
H -2.0128447448 -0.9611690123 -1.2576276247
H -3.3605423224 -0.2424304629 -0.3449987153
H -1.1987602344 1.1279465168 -1.5208029165
H -1.8435923810 1.5873817528 0.9932362007
H 1.1096444212 -1.9885875094 -0.0508035894
H 0.5807691982 -0.3800473739 -1.7692344271
H 3.6886699620 -0.8675909974 0.1452660098
