44
CONF92
C -5.0737468870 1.2818450393 1.1568536514
N -3.7165025583 1.0736951804 0.6364429914
C -3.7129642333 0.8839398658 -0.8322136982
C -4.2447311644 -0.5595534922 -1.0570087514
C -3.8586473167 -1.3020839041 0.2488256123
C -3.1431247106 -0.2119734538 1.0953748680
C -1.6352932269 -0.1729942082 0.8128275418
C -1.3967428094 -0.0421849464 -0.6874510026
C -2.2641495871 1.0389485937 -1.3146136837
O -0.0010194296 0.3357088285 -0.9397516452
C 0.9176056952 -0.6447185759 -0.9608765867
O 0.6650722935 -1.8250332254 -0.8248909799
C 2.3265187999 -0.1041801575 -1.1476140949
C 2.3846680246 1.2815480764 -1.8080468388
O 1.7628128893 1.3047611935 -3.0937743987
C 3.0315612625 -0.0806569749 0.1958016326
C 4.2641675853 -0.7171247505 0.3559829891
C 4.9305839979 -0.6696010887 1.5783278582
C 4.3692402635 0.0128112138 2.6550235929
C 3.1389507851 0.6495577649 2.5026667254
C 2.4742094578 0.6050791921 1.2804230805
H -5.7829385760 0.4748489169 0.9075458981
H -5.0303753107 1.3692158764 2.2474913295
H -5.4731658765 2.2192159137 0.7557794357
H -4.3408705033 1.6425377423 -1.3098947508
H -5.3288372820 -0.5493631163 -1.1972657430
H -3.8065861128 -1.0163355508 -1.9495876186
H -3.2082793134 -2.1637466671 0.0704951194
H -4.7471937719 -1.6676761931 0.7701640808
H -3.3114644975 -0.3358077534 2.1697877691
H -1.1509822457 -1.0787610824 1.1924669582
H -1.1991185323 0.6932098754 1.3234662897
H -1.5635188423 -1.0023113226 -1.1836813685
H -1.8935648882 2.0256791031 -1.0148433280
H -2.2142963297 0.9684624283 -2.4069633539
H 1.9479261458 2.0369666055 -1.1424053605
H 3.4375103130 1.5350440550 -1.9663500093
H 4.7028573420 -1.2522729467 -0.4815751188
H 5.8880527445 -1.1693699226 1.6890315815
H 4.8868664209 0.0474529368 3.6085479684
H 2.6941057180 1.1816729431 3.3379284679
H 1.5140962016 1.1020767322 1.1721635347
H 2.8363183594 -0.8245881374 -1.7957356169
H 0.8072900711 1.2764011437 -2.9515723491
