40
CONF124
C -4.0108084981 2.4626610527 0.3488925529
C -3.5848257474 1.1700904676 -0.3025445148
O -3.1035349400 0.2934983544 0.7658663118
P -2.7196214599 -1.2303635716 0.4559674816
S -4.1057327783 -2.5116412148 0.0445747599
O -1.5959099261 -1.0049401884 -0.6959023399
C -0.9946991890 -2.1521920446 -1.3622327417
C -0.4014037263 -1.6713325414 -2.6659000864
S -1.6961631513 -1.7682482309 2.2155697016
C -0.6081202799 -0.2500424182 2.4871849133
C 0.0023940114 -0.4410056853 3.8687044793
Cl 1.0109892337 1.0065399128 4.3003697612
N 0.3663883613 -0.0609410322 1.4495858497
C 0.3089958299 1.0220568770 0.5429182332
O -0.4756798710 1.9402448222 0.5917461208
C 1.3985521851 0.7752637279 -0.4329338284
C 1.7837104283 1.5176613205 -1.5339710288
C 2.8397787785 1.0217703744 -2.3020290523
C 3.4788344506 -0.1739652234 -1.9644789921
C 3.0863751121 -0.9120935334 -0.8454431567
C 2.0386842879 -0.4128813695 -0.0929272138
C 1.3875368983 -0.9709016829 1.1205671011
O 1.6448837599 -1.9903539875 1.7212850075
H -4.3676917632 3.1557026088 -0.4192053530
H -4.8191719198 2.2892732525 1.0638409606
H -3.1642987019 2.9208910545 0.8660031005
H -2.7636293870 1.3261056498 -1.0088526012
H -4.4182150397 0.6710405469 -0.8110246353
H -1.7694985514 -2.9087983424 -1.5282067262
H -0.2312463323 -2.5702232609 -0.6937296076
H -1.1810531304 -1.2670673876 -3.3170623838
H 0.0765906337 -2.5124675932 -3.1773208910
H 0.3528810721 -0.8982470755 -2.4969142342
H -0.7908764420 -0.5210628422 4.6137316764
H 0.6540329474 -1.3145019745 3.9054663229
H 1.2771291966 2.4425971114 -1.7876057312
H 3.1705039679 1.5713166420 -3.1771731151
H 4.2948452573 -0.5325511742 -2.5831772455
H 3.5755097408 -1.8407057734 -0.5716115114
H -1.2619206839 0.6262340153 2.4668185342
