29
CONF120
C -2.4899823030 0.7723325184 -1.1515227406
N -1.8536312917 -0.3653788002 -0.4692019083
C -1.5994429002 -1.5815701074 -1.2642359065
C -2.7458477320 -2.5690938745 -1.1707502113
O -3.8948891257 -1.9880573464 -1.7917225701
S -0.9125857990 -0.0687433886 0.8602385073
O -1.5381053273 0.9821290546 1.6561397186
O -0.4821719550 -1.3555945852 1.4059429311
C 0.6773588545 0.7320138582 0.1270188669
C 1.8936394847 0.6778589653 1.0970209023
C 3.0487039041 1.6614585367 0.7100730046
C 4.4172330545 1.3482192396 1.3965606620
F 5.2576149019 2.3682532507 1.1711041335
F 4.2543802000 1.2056104580 2.7187635864
F 4.9606623735 0.2326733481 0.8975643116
F 2.6923772829 2.9158251035 1.0579955615
F 3.2447016122 1.6124518343 -0.6304526316
F 2.3817961951 -0.5828012361 1.1014170837
F 1.4651012361 0.9945702951 2.3388635370
F 0.3884443966 2.0137804621 -0.1845162918
F 0.9739467059 0.0663212861 -1.0140451299
H -3.4341567267 0.4218435692 -1.5722943157
H -2.6914434263 1.5636008067 -0.4283686123
H -1.8530870276 1.1623573853 -1.9569360676
H -0.6932247479 -2.0751909473 -0.9048107162
H -1.4378435166 -1.2872313627 -2.3094681441
H -2.4441438864 -3.4947528772 -1.6868632357
H -2.9346826048 -2.8008323600 -0.1131276495
H -4.6507227365 -2.5620530971 -1.6320868831
