78
CONF158
C -0.6552352400 -0.4254694918 -0.8698394085
C 0.4858851099 -0.5570169478 -1.8676977903
O 0.0987545300 -1.7196826031 -2.6800966507
C -0.7654109502 -2.5117562322 -1.9924325664
O -1.1540829688 -3.5626902750 -2.4459549130
C -1.0442048657 -1.8785880971 -0.6507865758
C -2.4309921120 -1.9999037011 -0.0137759556
C -3.5680031130 -1.6258940464 -0.9594590650
C -4.0608082169 -0.3204634121 -1.0144049649
C -5.0751391691 0.0175819008 -1.9123234750
O -5.6195693405 1.2629195936 -2.0389833053
C -5.1009143233 2.2900423661 -1.1863352100
C -5.6073483880 -0.9582739220 -2.7612060398
O -6.6021941420 -0.6164059000 -3.6327135278
C -5.1186241936 -2.2681392775 -2.6901863970
O -5.7287128312 -3.1305045970 -3.5602451496
C -5.2519765485 -4.4820779294 -3.5930320072
C -4.1073243505 -2.6068205844 -1.7943747767
C -2.4340007409 -1.1355373857 1.2403420238
C -3.4293989018 -1.4122630830 2.2008161572
C -3.4858973156 -0.6151713765 3.3158794951
C -2.6071385617 0.4488799017 3.5021042134
O -2.9191020623 1.1106990953 4.6633369506
C -3.8693681713 0.2597524539 5.3371625155
O -4.3795043399 -0.6660805032 4.3535660073
C -1.6392168526 0.7501284573 2.5796994073
C -1.5488561621 -0.0642030659 1.4280963895
C -0.4186521453 0.2525518505 0.4646875754
O 0.8245185064 -0.2336587835 1.0532074314
C 1.7773664042 0.7448439866 1.2936173368
O 2.3486159608 1.1356827814 0.0323967960
C 3.3269773288 2.1558675265 0.2129481380
C 3.8519869144 2.6140091439 -1.1347702524
O 4.8917274950 3.5826469945 -0.8948908190
C 5.9541766314 3.0908634610 -0.0879026243
O 5.5030080910 2.5932864257 1.1646380062
C 4.4934047447 1.5828019663 1.0097733922
C 4.0076047267 1.1475366057 2.3757586769
O 5.0128087017 0.4709593941 3.1330181433
C 2.8554083860 0.1557439141 2.2026487716
O 2.2491388708 -0.1366938911 3.4563564143
C 6.7995923575 2.0729585955 -0.8121913929
C 7.5153106865 1.0304715955 -0.2863498723
C 8.2906913873 0.3395551292 -1.2570788084
C 8.1673349478 0.8696879721 -2.5117090574
S 7.0910795559 2.2279881273 -2.5221531695
H -1.4924722745 0.0884317103 -1.3597320943
H 1.4386466939 -0.7862637269 -1.3849471895
H 0.5974078812 0.2883238004 -2.5475621398
H -0.3127742305 -2.3373364437 0.0353258914
H -2.5838544746 -3.0423587553 0.2882292162
H -3.6647552955 0.4270591718 -0.3389855006
H -5.6535293037 3.1938479154 -1.4446735782
H -4.0304832028 2.4482160427 -1.3653707743
H -5.2657416274 2.0466944858 -0.1297162548
H -6.8394242108 -1.4131782381 -4.1304910263
H -4.1891180190 -4.5125258009 -3.8587909296
H -5.4073518291 -4.9737907718 -2.6259731957
H -5.8403372819 -4.9847185943 -4.3608582991
H -3.7255458839 -3.6182614087 -1.7465351903
H -4.1305081738 -2.2268708414 2.0503092743
H -4.6905768663 0.8665564337 5.7233136156
H -3.3547652411 -0.3025008100 6.1280632879
H -0.9645123812 1.5873080210 2.7245525547
H -0.3375008247 1.3385462355 0.3357516043
H 1.3323447549 1.6385224090 1.7698103292
H 2.8961699332 3.0154454102 0.7527708553
H 3.0866344453 3.1258115547 -1.7223748277
H 4.2343858040 1.7524213132 -1.7007728652
H 6.5480748515 3.9781965761 0.1562664448
H 4.9015644626 0.7156836246 0.4688672806
H 3.6385507257 2.0277177982 2.9263349602
H 5.6571707598 1.1273537696 3.4265370935
H 3.2414371403 -0.7602120164 1.7263215099
H 2.9596333247 -0.4028108133 4.0559260532
H 7.4812007345 0.7693037800 0.7649567656
H 8.9130583458 -0.5191821018 -1.0341141292
H 8.6332561505 0.5418781414 -3.4315989197
