29
CONF95
C 2.8022911439 0.5711217213 -1.4759776320
C 2.7398519731 -0.3425233684 -0.2845805476
C 1.6102825508 -0.8338223723 0.2453150816
C 0.1992367187 -0.5846064973 -0.1983171607
C -0.5370011993 0.3439130232 0.7790006543
C -2.0259763977 0.5792677363 0.4493687820
C -2.6240711274 1.5575929054 1.4622313423
C -2.7848122093 -0.7239564841 0.5093744328
C -3.5717893104 -1.2167940124 -0.4434074424
O -2.1633823742 1.2205027051 -0.8306548751
C 4.0828649437 -0.6808188404 0.3036328067
H 1.8209036229 0.8362442440 -1.8722475108
H 3.3867121607 0.1076105603 -2.2810375293
H 3.3250277666 1.4982779912 -1.2091540421
H 1.7066811941 -1.4712512565 1.1260188640
H -0.3363231059 -1.5423389541 -0.2475163393
H 0.1795489594 -0.1588865836 -1.2067758988
H -0.0385548569 1.3209749660 0.7974095201
H -0.4713343919 -0.0722620219 1.7924100946
H -3.6689740401 1.7640874493 1.2133388867
H -2.0603508975 2.4958312295 1.4503581309
H -2.5806621853 1.1349404790 2.4695129339
H -2.6534248866 -1.2757184048 1.4407441819
H -3.7310659976 -0.6928187892 -1.3818726856
H -4.0854941132 -2.1636880402 -0.3082755339
H -1.8433794708 0.6100674049 -1.5079733789
H 4.7248965216 -1.1575037248 -0.4482030913
H 3.9936168589 -1.3527987231 1.1613193768
H 4.6046806680 0.2293556735 0.6260608767
