52
CONF277
C -4.2292792319 -1.1552233820 0.0749522264
C -3.1715894328 -1.4655241085 -0.9806632293
C -1.8590841929 -1.9540359082 -0.3693739615
C -0.7768140742 -2.1749778997 -1.4257523035
C 0.5088859026 -2.8378003045 -0.9112672608
C 1.5838021005 -2.9592908453 -2.0025737784
C 1.1580698393 -3.7877368566 -3.2131968855
C 1.0684393535 -2.1321493944 0.3140009564
O 1.3784665609 -0.7481303563 -0.0447204930
P 1.0950225818 0.4392729782 0.9707047623
O 0.0737506284 0.1977977326 2.0118355822
O 2.5797530256 0.7965654739 1.4788904719
C 2.7880545271 1.8486378744 2.3819283056
C 2.2844139162 1.7841849703 3.6744664439
C 2.5660178545 2.8291099109 4.5497213223
C 3.3407689913 3.9094739330 4.1374491909
C 3.8375926071 3.9497776996 2.8375055077
C 3.5608254032 2.9165991505 1.9482922606
O 0.8382252738 1.6906166496 -0.0166055210
C -0.3885438709 1.8335950591 -0.6742685863
C -1.5533048620 2.0815451170 0.0413489930
C -2.7357673613 2.2870774883 -0.6634208904
C -2.7476215373 2.2480125009 -2.0550373768
C -1.5686431085 1.9957086136 -2.7511364727
C -0.3787237455 1.7839987740 -2.0618139428
H -3.8700376954 -0.3861096087 0.7674622927
H -5.1566560120 -0.7923617248 -0.3796650937
H -4.4708702588 -2.0458407952 0.6655874085
H -2.9727465964 -0.5640359643 -1.5742572007
H -3.5533585979 -2.2211186767 -1.6804810547
H -2.0377705963 -2.8893462216 0.1818517898
H -1.5261437255 -1.2156616604 0.3714928101
H -1.1910300746 -2.8002543481 -2.2256443895
H -0.5209826709 -1.2110735250 -1.8865110988
H 0.2565541285 -3.8530929827 -0.5632649649
H 2.4802604038 -3.4102669729 -1.5569054462
H 1.8735483698 -1.9518663190 -2.3255780444
H 2.0005294413 -3.9369278499 -3.8950816064
H 0.7966378864 -4.7764109384 -2.9079031560
H 0.3604085997 -3.3003245098 -3.7806208964
H 2.0058746880 -2.5969654891 0.6405584383
H 0.3569999816 -2.1327170224 1.1444791922
H 1.6773417883 0.9383162506 3.9741958287
H 2.1770341281 2.7931003029 5.5621188315
H 3.5575688113 4.7178517902 4.8275847911
H 4.4417874241 4.7894793105 2.5098767325
H 3.9312813922 2.9254378985 0.9294767074
H -1.5232583544 2.1046055055 1.1242314963
H -3.6533431895 2.4797536254 -0.1170633330
H -3.6740623589 2.4109654620 -2.5953721066
H -1.5718298402 1.9612172089 -3.8357177566
H 0.5535467688 1.5865421830 -2.5792190314
