21
CONF31
F -0.3176431762 1.3112944094 -0.9330719573
C -0.0268615172 -0.0143616699 -0.9339123503
F 0.3293601166 -0.3685434024 -2.1989837769
C 1.1959553865 -0.2469261677 -0.0029640227
F 1.3145066080 -1.6004260210 0.1818090155
F 0.8711281874 0.2977053044 1.2147302828
C 2.4730066627 0.3551854124 -0.5469140287
C 3.5697053151 0.5172996910 0.5064156817
O 3.9623893579 -0.7089198322 1.1227795952
C -1.3554161129 -0.7953560472 -0.6438401264
F -1.1693263151 -2.1064028449 -0.9178327805
F -2.2804669278 -0.3047028018 -1.5085947344
C -1.9714946811 -0.6966559583 0.7853081253
F -3.2064813306 -1.2202041663 0.7567225761
F -2.0566017415 0.5799212608 1.1819157777
F -1.2419338374 -1.3877519557 1.6688911135
H 2.8159475383 -0.2753135275 -1.3731354742
H 2.2427589448 1.3446487133 -0.9577608084
H 3.2226951147 1.1657911718 1.3147766421
H 4.4232397870 1.0092068991 0.0210703723
H 4.3357532855 -1.2806580937 0.4395696673
