45
CONF111
C 7.1108975270 1.3055102757 2.7325014458
C 5.6579513078 0.8397471692 2.7923852582
C 5.1287596142 0.3813018467 1.4340389776
C 3.6746842386 -0.0843643916 1.4792291106
C 3.1494269535 -0.5448926619 0.1206675689
C 1.6912743464 -0.9985851641 0.1616662970
C 1.1779208077 -1.4769337338 -1.1947199861
C -0.3136862988 -1.8502838773 -1.1949457993
C -1.2445383894 -0.6985443104 -0.8992212484
C -1.7846185330 -0.5592639930 0.3799036304
N -2.6436435512 0.4759729712 0.5673365582
C -2.9827473079 1.3717313760 -0.4469285442
N -3.8411410860 2.2667335741 0.0592554920
C -3.9722876179 1.8727162660 1.3416170150
N -3.2763060445 0.7956325868 1.7262755318
N -2.4663366722 1.2669116684 -1.6677230975
C -1.6159557853 0.2607390419 -1.8792500086
C -1.0394786911 0.2374873228 -3.2742082293
C -0.1352459944 1.4528048270 -3.5195793878
N -1.5862496344 -1.3761557122 1.4510275969
H 7.4707224563 1.6267694347 3.7145445970
H 7.2239803330 2.1485484992 2.0423783503
H 7.7663016750 0.5007155559 2.3823559103
H 5.0244474366 1.6528706986 3.1703751197
H 5.5633881267 0.0168874951 3.5132419562
H 5.7609436331 -0.4339549860 1.0548143248
H 5.2247427749 1.2037649439 0.7113285062
H 3.0425193796 0.7322768812 1.8550081647
H 3.5788628252 -0.9052866700 2.2040398505
H 3.7765539338 -1.3654582388 -0.2547519680
H 3.2486146488 0.2740524933 -0.6052015037
H 1.0667511168 -0.1678379134 0.5190992282
H 1.5926647244 -1.8117484618 0.8980429822
H 1.3535061703 -0.6914786837 -1.9402484375
H 1.7608262131 -2.3490411659 -1.5184978792
H -0.5782588893 -2.2819500951 -2.1653983457
H -0.4833571339 -2.6602785458 -0.4746299224
H -4.6079241291 2.3889402246 2.0507034264
H -1.8777330001 0.2702100311 -3.9788704354
H 0.7102525683 1.4621217089 -2.8235726154
H -1.9294987476 -1.0203924952 2.3322909592
H -0.7283823503 -1.8992267696 1.4830994207
H 0.2610111264 1.4384059421 -4.5390835823
H -0.4858043214 -0.6837389112 -3.4650291556
H -0.7019853017 2.3753774954 -3.3751615932
