76
CONF13
C -0.7215852534 -1.9781448433 -1.0823890511
C -1.9311187570 -1.2274629479 -0.5609227370
C -3.2087575403 -1.8663818068 -1.0460057187
C -4.4396959517 -1.6487772399 -0.5666329930
C -5.6376373049 -2.4055815442 -1.0952545005
O -5.3476518423 -3.4512614553 -2.0155127655
C -4.8389419255 -0.6425077596 0.4879204410
C -3.8849743548 0.5333372261 0.7257517356
O -2.9336962477 0.2799416768 1.7773341364
C -4.6220983820 1.8217950309 1.1656160584
O -5.4505826840 1.8602391810 2.0661455900
C -4.1164363999 2.9451531755 0.3761227940
C -4.5469648221 4.3501921923 0.6173248697
C -3.2732031718 2.4662063939 -0.5606148819
C -3.1498853596 0.9716488409 -0.5529652754
C -1.7908826513 0.2997385185 -0.8641189730
O -1.4914256295 0.5448427668 -2.2489711048
C -0.5586101819 0.8010415570 -0.0822062997
C -0.3405469251 2.3149572748 -0.1001942435
C 0.7211135011 0.1290458364 -0.6254535635
O 1.7317839153 0.2754944293 0.4150737193
C 2.8956941803 0.8895155258 0.1049500920
O 3.0987110905 1.4066574734 -0.9920797137
C 3.8512681196 0.8709544707 1.2164811851
C 3.5205588504 0.2184689109 2.4170082509
C 4.3931667863 0.1674330712 3.4882214050
C 5.6420837486 0.7884488624 3.3687281364
C 6.0078112837 1.4392864746 2.2063951887
C 5.1330519763 1.5022162030 1.0932779662
N 5.5128098284 2.1425170863 -0.0377251746
C 6.8041738747 2.7782611959 -0.2160638057
C 0.6232468001 -1.3128551825 -1.0681953112
O 1.3685320502 -1.5388898120 -2.2854067851
C 2.7053187948 -1.7466240148 -2.1826193659
C 3.3054298081 -1.9713343193 -3.5376453795
O 3.3119486846 -1.7591088317 -1.1328829988
C 0.3787803282 -2.5078011461 -0.1759972900
C 0.3031470684 -2.3250827882 1.3230176482
C 0.9759280164 -3.8442592912 -0.5684470897
H -0.8943822880 -2.5818020536 -1.9707299105
H -1.9414773476 -1.2850199313 0.5306765408
H -3.1107576803 -2.6024363400 -1.8414003038
H -6.2160358849 -2.7868195497 -0.2368605520
H -6.2949708268 -1.7048553709 -1.6272384612
H -4.8527547548 -4.1327235431 -1.5422056410
H -5.8108338473 -0.2258562512 0.1844298395
H -5.0340665156 -1.1489997307 1.4436447527
H -3.4418848134 0.1397982370 2.5898155572
H -5.6358321543 4.4387280069 0.5353273615
H -4.2781866334 4.6653236359 1.6318237620
H -4.0830761864 5.0331816815 -0.0974926575
H -2.7913373428 3.0758457651 -1.3180768855
H -3.7800446591 0.6261998295 -1.3876966613
H -2.1905717988 0.1425872865 -2.7831564847
H -0.6986613988 0.4932981213 0.9561477553
H -0.3399310084 2.7045264147 -1.1227756172
H 0.6246881695 2.5560530237 0.3558696946
H -1.1093000528 2.8344513552 0.4760789584
H 1.0508204581 0.6933863812 -1.5006571612
H 2.5503942971 -0.2574430864 2.4920533855
H 4.1131877554 -0.3438981294 4.4024921665
H 6.3424364283 0.7615462554 4.1987005544
H 6.9818552923 1.9093641031 2.1441699593
H 4.8519777556 2.1355513547 -0.8015371351
H 6.8385863012 3.2023519230 -1.2209871506
H 6.9636222651 3.5899254172 0.5060179526
H 7.6311422156 2.0627051121 -0.1147353556
H 2.9287689044 -2.9157344362 -3.9443603666
H 3.0042196814 -1.1750895375 -4.2232369423
H 4.3908594158 -2.0145481951 -3.4579030360
H -0.3377287881 -3.1022168832 1.7557143863
H -0.0908058277 -1.3546035111 1.6255703184
H 1.3024020945 -2.4268208262 1.7590919439
H 1.9775867831 -3.9635968449 -0.1441930664
H 0.3408707004 -4.6457301401 -0.1747541884
H 1.0393584836 -3.9679495118 -1.6522250835
