46
CONF20
C -1.9031301251 3.4793705480 -0.5874826944
C -2.3358451497 2.1201582511 -0.0431204606
C -3.7793834263 1.7782430133 -0.4138437240
C -4.2347085586 0.4404154444 0.1248231902
O -3.4257592121 -0.5883677954 -0.5328351678
C -3.4355576439 -1.8031965338 0.0098554054
O -4.1170643751 -2.1456648727 0.9559238669
C -2.5145558727 -2.7800170029 -0.7220314653
C -3.3328774277 -3.6279422400 -1.6849733648
O -1.5104957074 -2.1236542280 -1.5015483335
C -0.5904107666 -1.3434390313 -0.8564732740
C 0.2382033334 -0.5861726528 -1.6909055175
C 1.1971455771 0.2534717717 -1.1443062017
C 1.3172508107 0.3308036325 0.2373919653
C 0.5106873333 -0.4168713318 1.0772983124
C -0.4520833475 -1.2639617057 0.5312316569
O 2.2343921939 1.2350833378 0.7939629425
C 3.4984301155 0.7961934586 1.0183126726
C 4.3927603374 1.7342841709 1.5541093236
C 5.7016024145 1.4250765412 1.8328602788
C 6.1510859034 0.1202629471 1.5679579434
C 5.2757010826 -0.8330822468 1.0330763314
C 3.9583426934 -0.4955800876 0.7606750551
C 7.4989532973 -0.2270138078 1.8454142903
N 8.5998810353 -0.5121595039 2.0713250299
F 3.9364570336 2.9791987852 1.7978440166
H -2.5406972683 4.2805796978 -0.1975041567
H -0.8686695970 3.7054448744 -0.3102453935
H -1.9706097169 3.5003264497 -1.6809053583
H -1.6678140566 1.3407207813 -0.4280455092
H -2.2350589662 2.1056242999 1.0502835604
H -4.4580117888 2.5386269277 -0.0061334518
H -3.9050532363 1.7942709484 -1.5040599395
H -4.0757175683 0.3616106687 1.2050190125
H -5.2863257302 0.2357339168 -0.0986091047
H -2.0517764955 -3.4201378455 0.0397565528
H -2.6806766911 -4.3572281752 -2.1711376713
H -4.1117689390 -4.1612484529 -1.1354245126
H -3.7981166483 -2.9957804568 -2.4463967255
H 0.1107935409 -0.6566027368 -2.7659388907
H 1.8420791505 0.8510287049 -1.7802685048
H 0.6270613304 -0.3377755170 2.1531824609
H -1.0792192129 -1.8381855450 1.2025869854
H 6.3602541117 2.1802540604 2.2461729032
H 5.6284786719 -1.8380257847 0.8321119286
H 3.2818278471 -1.2346757727 0.3480364340
