22
CONF1
C 4.0195394838 -0.0238803757 0.7658606480
C 3.0685989107 -0.0179648056 1.7791692423
C 1.7171231519 -0.0199983608 1.4577951890
C 1.2881753744 -0.0280194702 0.1301498576
C 2.2487961597 -0.0339021639 -0.8836954181
C 3.5960368229 -0.0317572329 -0.5572252485
Br 4.8924029044 -0.0396990221 -1.9569784846
C -0.1474801640 -0.0307348027 -0.2337927955
C -0.8604473721 1.1570282424 -0.4301277854
C -2.2049656065 1.1793152095 -0.7780671133
C -2.8556645809 -0.0361955426 -0.9373567942
C -2.2043810176 -1.2491134214 -0.7613701908
C -0.8599105815 -1.2214590673 -0.4137594891
Br 0.0270606340 -2.8897169831 -0.1632270258
Br -4.7012781137 -0.0399569573 -1.4114343297
Br 0.0258464561 2.8290153735 -0.2029012749
Br 0.4367636821 -0.0118591347 2.8691555992
H 5.0754185314 -0.0223805297 1.0081778261
H 3.3801586251 -0.0118289063 2.8167841326
H 1.9292503719 -0.0401117448 -1.9191961904
H -2.7257408963 2.1168707814 -0.9182686955
H -2.7247719746 -2.1887260595 -0.8886178134
