35
CONF7
C 4.9418617823 -1.8715993076 0.9609799546
O 4.4678764727 -0.7712390193 0.1883731581
C 3.1381592254 -0.4863298248 0.2447320708
C 2.7137231705 0.5901417735 -0.5381065021
C 1.3767664731 0.9573652071 -0.5517819900
C 0.4310769793 0.2616145149 0.2065647489
C 0.8712192022 -0.8089949772 0.9872614827
C 2.2077407167 -1.1892695122 1.0169726858
C -1.0399504448 0.6550457753 0.2579441978
C -1.4032965091 1.7212439129 -0.7768003737
C -2.6136086211 2.5780203550 -0.5599906478
C -1.2359901908 3.1852544039 -0.4843886621
C -1.9376200641 -0.5434026786 -0.0039127605
C -1.6995190129 -1.3990049792 -1.0782723089
N -2.4973514763 -2.4245333934 -1.3796236588
C -3.5544962047 -2.5914891982 -0.5776395295
N -3.8826542666 -1.8507378555 0.4813888115
C -3.0676863423 -0.8253694868 0.7590044017
O -1.3537237249 1.1242059156 1.5851335224
H 4.7712686043 -1.7092730413 2.0330137992
H 4.4660000550 -2.8105984661 0.6504409046
H 6.0140150943 -1.9284645426 0.7698055638
H 3.4486646056 1.1257652301 -1.1292188296
H 1.0670589099 1.8011612266 -1.1579189935
H 0.1506216968 -1.3613688017 1.5837205389
H 2.5066293512 -2.0284179434 1.6326676070
H -1.2194618527 1.4050481753 -1.8011356537
H -3.2327059073 2.8080668630 -1.4197204101
H -3.1421286480 2.4532162069 0.3787476781
H -0.8777063756 3.4667726156 0.5001786847
H -0.9078714998 3.8310614892 -1.2923500760
H -0.8222919319 -1.2565628756 -1.7103171358
H -4.2156744244 -3.4250346095 -0.8135995913
H -3.3161537926 -0.2160592511 1.6234446623
H -0.5527901447 1.5337659985 1.9304968745
