26
CONF263
C -2.8365533268 -0.5331381660 0.6528812202
C -1.3149398165 -0.6192550334 0.5682872279
C -0.7539497495 0.3101258430 -0.5179906939
C 0.7100380302 0.0371958157 -0.8955048990
C 1.6996560814 0.0409867532 0.2772052274
C 3.1350492041 0.0634877235 -0.2206840653
O 4.0660266112 -0.0156411478 0.8600083534
O 1.5425690189 1.2082161301 1.0933095507
O 0.7331563209 -1.2555462013 -1.5339224512
O -1.5461286379 0.2280821191 -1.7044864402
O -0.7560102535 -0.1982017019 1.8239458271
O -3.3007169440 -1.2008494553 1.8385821835
H -3.1430142182 0.5140311736 0.7534407374
H -3.2978800434 -0.9537375752 -0.2458303235
H -1.0220609722 -1.6629365892 0.3640175214
H -0.8429674034 1.3400752080 -0.1538236060
H 0.9985562070 0.8159916137 -1.6167313449
H 1.5401909657 -0.8685214768 0.8739475018
H 3.2930030131 0.9823821024 -0.8087671039
H 3.3235059049 -0.7999608247 -0.8650626701
H 0.7702826548 1.0367570937 1.6558446590
H 1.3226727888 -1.2126276804 -2.2949721200
H -1.2599663389 -0.5791351207 -2.1593065476
H -1.3221343015 -0.5747415283 2.5148783371
H 3.8136715073 0.6791228777 1.4835412665
H -3.2342169811 -2.1526949932 1.6867809631
