47
CONF63
C -7.3542454351 -3.2129645226 -0.3836441150
O -6.6860417687 -2.7610989666 0.8274168441
P -5.8225062032 -1.4159913104 0.8108328945
S -6.5959370899 0.1358965210 -0.0631276465
O -5.4251058015 -1.2761463114 2.3525234690
C -6.3599474569 -0.6757307032 3.2937482658
O -4.4262469053 -1.9608623932 0.1892170483
C -3.4506993101 -1.0870927806 -0.2992683577
C -2.6811729735 -0.3360099892 0.5824961804
C -1.6914973684 0.4950894206 0.0743613582
C -1.4580151377 0.5445194474 -1.3030624120
C -2.2312668256 -0.2274104962 -2.1719357167
C -3.2440526854 -1.0387411352 -1.6691879855
S -0.2410949296 1.6512436495 -2.0054055399
C 1.1858908784 1.3912487570 -0.9594278736
C 1.9812608747 2.4967492526 -0.6509431298
C 3.1448459958 2.3334786192 0.0948686447
C 3.4869158969 1.0650889380 0.5390194318
C 2.6997462097 -0.0438120692 0.2538174595
C 1.5508593304 0.1193405986 -0.5088232415
O 4.6162194723 0.9011999373 1.3587247799
P 6.0855743680 0.6594399690 0.7221294786
S 7.4251300194 0.4561974164 2.1073926707
O 6.3197241256 1.8348911100 -0.3452245130
C 6.8672650137 3.1149117110 0.0755324241
O 5.7940091503 -0.5741816180 -0.2503815354
C 6.8806725845 -1.1475284449 -1.0303441838
H -6.6168878789 -3.4209941297 -1.1639620563
H -8.0655725600 -2.4557351544 -0.7223301757
H -7.8760725971 -4.1280331636 -0.1054402706
H -5.8451345620 -0.6735637934 4.2539379719
H -6.5954331943 0.3458354335 2.9851616070
H -7.2706063437 -1.2774876947 3.3542284908
H -2.8645322062 -0.3925518403 1.6500328830
H -1.0973944703 1.0990463500 0.7520484461
H -2.0448295882 -0.1976665029 -3.2403177996
H -3.8588491646 -1.6404518330 -2.3297021476
H 1.6916999084 3.4878176164 -0.9846402720
H 3.7645345889 3.1865604019 0.3475761115
H 2.9931440603 -1.0228552740 0.6160195168
H 0.9391225493 -0.7437818659 -0.7486416332
H 7.8895129606 2.9803545139 0.4367620116
H 6.8557885874 3.7435970473 -0.8146562374
H 6.2455917559 3.5586701125 0.8580481818
H 7.6626964568 -1.5194008013 -0.3628904617
H 6.4374125464 -1.9714390096 -1.5885866137
H 7.2855240429 -0.3996448026 -1.7169062500
