54
CONF842
C -4.7516848134 0.7222599420 2.7034673911
N -3.9714759454 1.3272333266 1.6140835212
C -3.9222413817 2.6770161376 1.3667942848
C -4.7231192464 3.5487230144 2.2955211298
O -3.2539275728 3.1264245235 0.4361915784
C -3.2529408608 0.4677191961 0.7466236824
C -1.9359641716 0.0983627343 1.0323691833
I -1.0298009749 0.8753333309 2.7784189610
C -1.2188554089 -0.7622177808 0.2014441963
C 0.1788295932 -1.1888005290 0.5789625535
O 0.3624330476 -2.1682237876 1.3067526055
N 1.1598010015 -0.4208408864 0.0766147711
C 2.5522099500 -0.5796380603 0.4827719314
C 3.2718799453 -1.6852659661 -0.3108768053
O 2.6717156273 -2.9314417214 -0.1890279589
O 4.6089799079 -1.7931289160 0.1917976427
C 5.3831023910 -0.6181564988 -0.0672998223
C 6.7851254769 -0.9552622381 0.4184656891
O 7.6284036602 0.1790505830 0.1600693485
C 4.7641324202 0.5733108800 0.6745593519
O 5.3959762467 1.8091702064 0.3413071061
C 3.2983103627 0.7343768286 0.2895897717
O 2.6580719694 1.7283304721 1.0864356084
C -1.8440593233 -1.2663228442 -0.9383951157
I -0.8155052289 -2.6536864107 -2.1581830316
C -3.1538017168 -0.9035476646 -1.2773584682
N -3.7656730696 -1.3948351186 -2.4474830532
C -3.4750946648 -0.8810454027 -3.6889620749
C -4.2243223879 -1.5150472171 -4.8301795704
O -2.6342641144 -0.0026058162 -3.8440344824
C -3.8376269813 -0.0336528141 -0.4201538682
I -5.8042189518 0.5552075740 -0.9066744895
H -4.4988942640 1.1832082545 3.6620255085
H -4.4996532434 -0.3383909910 2.7559372955
H -5.8273661574 0.8192260662 2.5209732548
H -4.3350339204 3.4810996846 3.3174834470
H -4.6518195532 4.5792298593 1.9498986684
H -5.7727606537 3.2392943479 2.3207361431
H 0.9052772650 0.3769487323 -0.4899793335
H 2.5725751337 -0.8617273841 1.5452690633
H 3.3157506867 -1.4253351184 -1.3821682527
H 2.0868055765 -2.9318711420 0.5888617665
H 5.4021340698 -0.3983966926 -1.1487927207
H 6.7459345797 -1.1784867695 1.4933447803
H 7.1482848557 -1.8426459551 -0.1164779986
H 8.4499413564 0.0593736162 0.6511185528
H 4.8232329682 0.3815219816 1.7598795179
H 6.3529381776 1.6559908685 0.4105773397
H 3.2569372276 1.0167346529 -0.7774194893
H 3.1460184258 2.5527641855 0.9566643728
H -4.5635333572 -2.0066178264 -2.3434016468
H -4.3873761306 -0.7669845420 -5.6071680463
H -3.5966789556 -2.3108479867 -5.2471524549
H -5.1771066604 -1.9528866432 -4.5238210973
