63
CONF21
C -11.3528024060 2.2126406215 2.3373659098
C -10.4841424396 1.4453204508 1.3429715320
C -8.9918257385 1.5571134117 1.6525749414
C -8.1106913712 0.7921891781 0.6664487124
C -6.6191166120 0.9071501908 0.9766619954
C -5.7368089268 0.1418863388 -0.0083627155
C -4.2458517760 0.2555529996 0.3049618232
C -3.3614766100 -0.5050903753 -0.6817594567
C -1.8713566606 -0.3938253340 -0.3637128018
C -0.9840099035 -1.1452153661 -1.3548283021
C 0.5051945323 -1.0374878471 -1.0302681900
C 1.3886652316 -1.7887588162 -2.0269008311
C 2.8909551357 -1.6075285325 -1.7914372371
C 3.3824071365 -2.1736687907 -0.4570323224
C 4.9066063980 -2.1763063551 -0.3081968257
C 5.5339298096 -0.7821397703 -0.2910190837
C 7.0375883436 -0.8097020284 -0.0198921529
C 7.6702596158 0.5803106414 -0.0064757725
C 9.1711318995 0.5508535546 0.2751029335
C 9.8199082335 1.9295202812 0.2412663335
O 9.6949153994 2.5775332479 -1.0292831767
H -11.1005416127 3.2785969306 2.3368172925
H -12.4166036327 2.1203860818 2.0980640029
H -11.2050132323 1.8385536989 3.3562587981
H -10.6704205968 1.8163083910 0.3264773523
H -10.7737723886 0.3862370454 1.3399925345
H -8.8042261031 1.1877503744 2.6707001608
H -8.7007796301 2.6170414784 1.6545756703
H -8.2997149744 1.1609541553 -0.3515140600
H -8.4010929124 -0.2677919054 0.6660723494
H -6.4302108880 0.5392329314 1.9949512505
H -6.3286373245 1.9670988698 0.9765039641
H -6.0281601463 -0.9178333705 -0.0099784406
H -5.9236795885 0.5113783904 -1.0264644922
H -3.9554740873 1.3155369326 0.3101674694
H -4.0588185802 -0.1168790178 1.3219715906
H -3.5456256975 -0.1302452352 -1.6983904126
H -3.6532496336 -1.5646763023 -0.6895798233
H -1.5810871530 0.6661165841 -0.3487305033
H -1.6868903187 -0.7748400487 0.6505734094
H -1.2756020954 -2.2047945168 -1.3738679548
H -1.1648765587 -0.7607087996 -2.3684726764
H 0.7992480585 0.0219400584 -1.0139971982
H 0.6768019532 -1.4191212216 -0.0155482557
H 1.1413957319 -2.8593772722 -1.9951003532
H 1.1437705624 -1.4473227388 -3.0415740705
H 3.4428016099 -2.0978861019 -2.6052468420
H 3.1331749827 -0.5387299780 -1.8553995809
H 2.9469137612 -1.6033447522 0.3736717657
H 3.0107524316 -3.2024960656 -0.3532959862
H 5.1726188162 -2.6938010787 0.6233518106
H 5.3515432208 -2.7639863730 -1.1236635972
H 5.0366731908 -0.1712707948 0.4761258953
H 5.3546501503 -0.2770579697 -1.2487709670
H 7.5314832920 -1.4275313288 -0.7833757359
H 7.2244779230 -1.3076356226 0.9423531314
H 7.4944622247 1.0776044319 -0.9678868359
H 9.6741483378 -0.1033895021 -0.4531568572
H 9.3585324492 0.1059244207 1.2626629103
H 10.8786039618 1.8591663804 0.5368648608
H 9.3219140660 2.5968443537 0.9537090331
H 10.1464483366 2.0308291225 -1.6818237328
H 7.1752510059 1.2003847460 0.7540031542
