34
CONF24
C -2.4493370726 -2.2471849809 -1.5726362508
C -1.4161985140 -1.5574346102 -0.9519120826
C -1.5838367358 -0.9049673158 0.2746492406
C -2.8609567099 -0.9683016612 0.8476802727
C -3.9174759172 -1.6488952094 0.2534730843
C -3.6943108957 -2.2844812370 -0.9598917519
Cl -5.0120502878 -3.1444200072 -1.7227059915
Cl -3.1872471930 -0.1781004116 2.3824009588
C -0.4632191434 -0.1329828063 0.9354109201
C -0.5749156783 1.3601507314 0.5601191698
N 0.4669787074 2.1474022270 1.1927145209
C 1.5165298075 2.7925342989 0.6326034972
N 2.2734235541 3.3377354258 1.5704490693
C 1.6303290924 2.9776661116 2.7147650417
N 0.5312378633 2.2522814531 2.5413792251
C 0.9364773487 -0.6675811249 0.6716102735
O 1.3345120941 -0.2774210937 -0.6778201794
C 2.6136114786 -0.5155426565 -1.0147123588
C 2.8677924089 -0.0676777659 -2.4653748599
F 2.0416411856 -0.7576397268 -3.2956573232
F 2.5821869976 1.2586364784 -2.5783346459
F 3.5027415391 0.1433971621 -0.2056032380
F 2.9405608751 -1.8464973012 -0.9180437285
H -2.2893527675 -2.7458229592 -2.5207962378
H -0.4499839546 -1.5228233373 -1.4411025837
H -4.8889721912 -1.6818404893 0.7297781090
H -0.5936529974 -0.1990279112 2.0216209076
H -1.5522533900 1.7411275570 0.8709910873
H -0.4743407474 1.4841898023 -0.5210711907
H 1.6804050425 2.8261213941 -0.4365078037
H 1.9728204183 3.2567983617 3.7025141726
H 1.6417367671 -0.2272722997 1.3831496791
H 0.9638654524 -1.7589994817 0.7512166890
H 3.9112538595 -0.2431267174 -2.7543552797
