49
CONF7
C -2.9992249361 1.3800644593 2.7288321444
C -2.9866249223 0.4149943085 1.5612402618
C -1.7534370810 -0.4552701346 1.2817292267
C -2.1678105815 0.7060952161 0.3375646307
C -2.6490533199 0.2799299512 -1.0346267211
C -1.3021186147 1.9453104378 0.2647355929
C -0.5049817231 -0.3850147251 2.0338542800
O -0.0645576664 0.5091984236 2.7250616803
O 0.2144839863 -1.5511598204 1.8217065801
C 1.5419863284 -1.5356900369 2.3672838477
C 1.9792623607 -2.9335995716 2.3779836915
N 2.3637952343 -4.0224588693 2.3878586541
C 2.5094289972 -0.6889594601 1.5506681612
C 3.6930527715 -0.2600290341 2.1449698777
C 4.5890463666 0.5026754217 1.3997177388
C 4.3083344721 0.8370450839 0.0812568070
C 3.1142400858 0.4036393512 -0.4948815426
C 2.2083464726 -0.3682038837 0.2299741308
O 2.8802590622 0.8321252795 -1.7812775254
C 1.8916474640 0.2231652130 -2.5459184200
C 0.9224327353 1.0461011989 -3.1062816405
C -0.0330113634 0.4869238167 -3.9521108326
C -0.0207585161 -0.8793730203 -4.2215413008
C 0.9605580063 -1.6894694676 -3.6509696511
C 1.9288156852 -1.1424181299 -2.8139616906
C -4.3180458841 -0.3012639531 1.4233049316
H -3.7865917497 2.1247797087 2.5648449015
H -2.0555185522 1.8989356652 2.8786907986
H -3.2375444204 0.8406100790 3.6519865053
H -1.9589369664 -1.4426358175 0.8814775497
H -3.1753653875 -0.6751120061 -1.0281945807
H -3.3213653610 1.0425165731 -1.4456178275
H -1.7929935436 0.1894787511 -1.7120089118
H -0.4716064438 1.7736814311 -0.4301039407
H -0.8814555971 2.2424887689 1.2238188931
H -1.8980533878 2.7778716450 -0.1264002616
H 1.5245993007 -1.1747161377 3.4036411031
H 3.9100250786 -0.5130879798 3.1781217158
H 5.5136019366 0.8456534994 1.8526475402
H 4.9937920680 1.4386171794 -0.5061442941
H 1.2796263215 -0.6984584281 -0.2200567338
H 0.9264677740 2.1074566095 -2.8811192689
H -0.7930780701 1.1236814999 -4.3939283446
H -0.7702124884 -1.3121742222 -4.8760066036
H 0.9812723786 -2.7533981160 -3.8651512637
H 2.7033877941 -1.7624371039 -2.3742041075
H -4.3042589716 -1.0881802890 0.6685046005
H -5.1014670673 0.4179170591 1.1579172084
H -4.5903904565 -0.7578466358 2.3807814328
