44
CONF2
C -0.5071409854 2.5445481557 -1.6144765336
C 0.7128568716 2.5968100654 -0.6987983771
C 0.6147068878 1.6055611400 0.4806345781
C 0.5684983630 0.1791286080 -0.0159316484
C -0.6156442682 -0.5652634743 -0.1919750738
C -0.6285580371 -1.7091321150 -1.0328710001
C 0.5606362134 -2.2080344298 -1.5448355187
C 1.7695703377 -1.5841158110 -1.2690909617
C 1.7359312226 -0.3869772517 -0.5338039749
O 2.8811831241 0.3389204034 -0.3163674459
C 4.0597170238 -0.1282143897 -0.7915425325
C 4.2009622886 -1.2773738453 -1.4810365184
C 3.0470072175 -2.1154326753 -1.7858896065
O 3.1310086199 -3.1601695038 -2.4200991369
C 5.2222867509 0.7530778371 -0.4841188225
O 6.3533066527 0.4959908382 -0.8172866926
O 4.8628223206 1.8613610729 0.2008283599
C -1.9087732667 -2.3337827684 -1.4333470593
O -1.9699011284 -3.3629709016 -2.1012581201
C -3.0878699612 -1.5963843616 -1.0156162592
C -3.0017833917 -0.5986806182 -0.0987495839
N -1.8025000148 -0.1495542376 0.4235379630
C -1.7622409002 0.1496716996 1.8905290834
C -2.4153267921 -0.9573547320 2.7103426534
C -4.2196554269 0.1623519685 0.3161066043
O -4.2100908125 1.2851983302 0.7670604141
O -5.3558691036 -0.5377101021 0.0950920296
H -1.4296541791 2.7260713108 -1.0519487580
H -0.4365527894 3.2989604566 -2.4032090616
H -0.6003790032 1.5671341923 -2.0994319886
H 1.6261946923 2.4019907597 -1.2709875259
H 0.8171831052 3.6031401044 -0.2760578827
H 1.4709449734 1.7451390704 1.1478879268
H -0.2846610733 1.8588414516 1.0404792387
H 0.5407279514 -3.0936149844 -2.1715156192
H 5.1856811845 -1.5718183533 -1.8213152013
H 5.6791072291 2.3650707893 0.3483021775
H -4.0457248366 -1.8791134717 -1.4309215371
H -0.7096247658 0.2095643383 2.1646914775
H -2.2324542438 1.1164700177 2.0825519303
H -2.2696354492 -0.7460050922 3.7738353274
H -3.4918482206 -1.0288231909 2.5327442588
H -1.9636050511 -1.9285377904 2.4860026671
H -6.0908396679 0.0540603575 0.3203338355
