21
CONF5
C -3.0508449744 1.3780762515 -0.6408883282
C -1.6334760139 1.4213661716 -0.1130205974
O -1.2149555878 2.4087904764 0.4672334789
C -0.7568633311 0.2261921998 -0.3187398800
C -1.1971288918 -0.9197471238 -0.9827834269
C -0.3285268015 -1.9984687450 -1.1405631459
C 0.9630827332 -1.9420073908 -0.6445819354
C 1.4063799552 -0.7916005900 0.0228148304
C 0.5489323540 0.2904488737 0.1852116569
O 2.6903496939 -0.8342657282 0.4731427231
C 3.1809951239 0.3158124063 1.1604005097
H -3.6065986956 0.5471024041 -0.1938752370
H -3.5445343958 2.3193742517 -0.4005271872
H -3.0559673467 1.2282149140 -1.7257816424
H -2.2045862828 -0.9811718889 -1.3768128803
H -0.6633324024 -2.8929562059 -1.6559431818
H 1.6495990963 -2.7738983482 -0.7595659031
H 0.8442483740 1.2004033691 0.6920085645
H 3.1654382639 1.2019912155 0.5135561947
H 4.2104704180 0.0811492079 1.4330032013
H 2.5973183094 0.5151940831 2.0679018970
