49
CONF67
C -3.0909468529 -1.6305997117 -1.3541430787
C -3.2003238748 -1.3930186100 0.1378908988
C -2.4361077630 -0.2291316465 0.7981693294
C -2.0472057138 -1.7078069786 1.0441922674
C -2.2943001951 -2.2172108185 2.4507462703
C -0.7513711000 -2.2450144590 0.4746255412
C -1.5675221805 0.6834607119 0.0579951911
O -0.9178903321 0.4753817522 -0.9465690129
O -1.5565719307 1.9146327042 0.6877752550
C -0.6386346946 2.8828977302 0.1131072283
C -1.2196267064 4.1942990475 0.3925524188
N -1.6566445290 5.2417142906 0.6048923856
C 0.7437391166 2.7244278343 0.7064832166
C 1.7207345873 2.0825628155 -0.0495634888
C 2.9696179979 1.8476494065 0.5197922078
C 3.2581011556 2.2726667177 1.8135597388
C 2.2763079379 2.9294666250 2.5492430409
C 1.0144926084 3.1507049896 2.0076030170
O 3.9913570332 1.2470365113 -0.1851444162
C 3.6768669438 0.2516375889 -1.1008319802
C 2.7789229852 -0.7672625333 -0.7898154962
C 2.5558606191 -1.7755844992 -1.7223289331
C 3.2271926458 -1.7725310635 -2.9442892528
C 4.1297816253 -0.7512813902 -3.2325598300
C 4.3569725416 0.2698403326 -2.3130954393
C -4.6241911585 -1.5842228703 0.6261518894
H -3.7705080264 -0.9574713024 -1.8881416010
H -3.4009747040 -2.6590984188 -1.5720018759
H -2.0889680800 -1.4779379435 -1.7482733953
H -2.9485264815 0.2444749855 1.6290549806
H -1.4220476920 -2.0069609593 3.0786902934
H -3.1662908669 -1.7649314452 2.9244997272
H -2.4391836711 -3.3037821396 2.4304272222
H 0.0744293154 -2.0254409277 1.1606393413
H -0.4997359824 -1.8262775948 -0.4974446402
H -0.8250496414 -3.3343851189 0.3776538998
H -0.6007231041 2.7482636641 -0.9740337002
H 1.5053895771 1.7549352508 -1.0600293909
H 4.2425236498 2.0846179167 2.2286799089
H 2.4979834328 3.2621907127 3.5579585118
H 0.2473271132 3.6500730121 2.5912453671
H 2.2635516628 -0.7691219221 0.1650714039
H 1.8579659784 -2.5725864544 -1.4850528305
H 3.0491263026 -2.5633139677 -3.6654533419
H 4.6578640751 -0.7418119296 -4.1808817675
H 5.0525530486 1.0755367007 -2.5231675738
H -4.9184445843 -2.6340874576 0.5125819376
H -4.7613398264 -1.3007258904 1.6702501418
H -5.3055312668 -0.9768722213 0.0209578867
