39
CONF172
C 6.3624729685 3.2435931078 -0.4333437724
C 7.2688467745 2.0847340885 -0.0170679364
C 6.5235864402 0.9316972743 0.6622281679
C 5.4749414314 0.2704464836 -0.2317461694
C 4.8148955215 -0.9653542326 0.3979192990
C 5.7112422837 -2.2105887582 0.2892890701
C 5.3370768614 -3.3441958163 1.2433408177
C 3.4755236229 -1.2437895680 -0.2613801376
O 2.5589280018 -0.1754027330 0.1253903112
C 1.3679336688 -0.1959431541 -0.4829617206
O 1.0151207771 -1.0294836881 -1.2866104217
C 0.4415128091 0.8777691287 0.0116910426
C -0.8540104698 0.4395603529 0.2720275617
C -1.8154575223 1.3047244712 0.7637928245
C -1.5068187591 2.6501939528 0.9886238742
C -0.2137182638 3.1131415275 0.6894547842
C 0.7595557365 2.2264524485 0.2035674049
Br 2.4717437750 2.8842225504 -0.2870242764
Br 0.2050251816 4.9424333512 0.9408309675
Br -2.8242400710 3.8212952416 1.6671871969
Br -3.5384995878 0.5907323814 1.1139096920
H 5.7788098031 3.6079645918 0.4200803469
H 6.9478492039 4.0827698930 -0.8208300093
H 5.6603129276 2.9461009632 -1.2188815134
H 7.8013516948 1.7012038159 -0.8974717588
H 8.0382289770 2.4596446081 0.6687440415
H 7.2553703495 0.1850592655 0.9959986739
H 6.0270489553 1.3064123264 1.5683428412
H 5.9311290544 -0.0212387291 -1.1901050900
H 4.6956308571 1.0020814843 -0.4659592542
H 4.6269839979 -0.7611151338 1.4623651460
H 6.7464611155 -1.9099557137 0.4848979919
H 5.6943832687 -2.5701807999 -0.7492762620
H 4.3220345055 -3.7140002986 1.0690023942
H 6.0169066984 -4.1933122414 1.1268500700
H 5.3950306240 -3.0100535468 2.2845192821
H 3.0340406554 -2.1931590823 0.0571313198
H 3.5614230990 -1.2539940502 -1.3541381256
H -1.0980088300 -0.5986717373 0.0841303011
