47
CONF147
C 4.5613827458 0.4981840113 4.8220231384
C 3.1302190156 0.0844890809 4.4538395643
C 2.9543841677 -1.4355038648 4.5664457616
C 2.7494193351 0.5846779582 3.0756393597
C 1.7085822081 1.5019380478 2.9118838658
C 1.3438608100 1.9671914265 1.6505780612
C 2.0399603290 1.5037380843 0.5461717089
C 3.0861739277 0.5999057404 0.6664395593
C 3.4317800685 0.1458434982 1.9349026820
O 1.6828637988 1.9999882079 -0.7261117095
P 0.7836590799 1.0568354185 -1.6604040505
O 1.3575512672 -0.2348346358 -2.0939440145
O 0.4822317227 2.1537283903 -2.7925255504
C -0.4597563322 1.8282730199 -3.7889693609
C -1.7150615018 2.4142416193 -3.7097107161
C -2.6472985476 2.1280521768 -4.7037649835
C -2.3184211276 1.2673382241 -5.7491320056
C -1.0497536425 0.6944558706 -5.8073239543
C -0.1040087791 0.9740217391 -4.8234094259
O -0.6100874686 0.9234885498 -0.8611171561
C -1.1993520213 -0.3293591621 -0.6179610694
C -0.8457025300 -1.0292714121 0.5265097939
C -1.4796161875 -2.2416330511 0.7878129142
C -2.4465955337 -2.7334612512 -0.0866626873
C -2.7832953719 -2.0112379351 -1.2296235175
C -2.1573937541 -0.7975867039 -1.5048503585
H 4.6858045928 1.5837887952 4.7604561457
H 5.2869027770 0.0324280013 4.1463216298
H 4.7979760223 0.1797205907 5.8425433917
H 1.9318686186 -1.7339637451 4.3142794257
H 3.6393239261 -1.9588653146 3.8905985820
H 3.1699286590 -1.7677592540 5.5872776967
H 1.1677883946 1.8585365587 3.7840829670
H 0.5301501419 2.6727300272 1.5209828780
H 3.6146466196 0.2597680447 -0.2174295345
H 4.2498027158 -0.5618535539 2.0302323187
H -1.9502159152 3.0754682173 -2.8827359547
H -3.6335592724 2.5782632433 -4.6563958433
H -3.0494331142 1.0453856375 -6.5195961934
H -0.7884889467 0.0275841914 -6.6225732815
H 0.8892781107 0.5403800739 -4.8525206755
H -1.2133913124 -2.8012443723 1.6787121700
H -2.9368944798 -3.6785319250 0.1222925446
H -3.5349237143 -2.3910447040 -1.9140835088
H -2.4041291726 -0.2202511685 -2.3904556568
H 2.4461372315 0.5587834185 5.1684051323
H -0.0899507462 -0.6294484650 1.1955631966
