44
CONF11
C 3.3740913964 -0.4173053924 -0.7982575313
C 2.3815640907 0.1493892408 -1.7574018263
N 1.3867977156 0.8695573371 -1.2383900944
C 0.4562250804 1.3037843091 -2.1081633905
N 0.5122235506 1.1149821374 -3.4303961973
C 1.5766976085 0.4235228817 -3.8340723368
N 2.5339042005 -0.1058789566 -3.0618444686
O 1.6449446700 0.2589204561 -5.1555859692
C 2.7644409938 -0.4908351516 -5.6703764153
N -0.6489056600 1.9914730837 -1.6338949888
C -1.6099422281 2.4958408160 -2.6298051897
C -1.0777214983 2.0809482329 -0.2744072016
O -2.2038742919 2.4526099088 -0.0069814404
N -0.1352378248 1.7467488451 0.6713276534
S -0.5652672253 1.5279941177 2.3066647846
O 0.6337025654 0.9235655373 2.8966145562
O -1.1293128508 2.7670875851 2.8276262255
C -1.8696967128 0.2851701156 2.2846325241
C -3.1797789151 0.7158627160 2.4493286841
C -4.1987636370 -0.2265830585 2.5362195370
C -3.8988712487 -1.5833092343 2.4819690197
C -2.5824554678 -2.0059003462 2.3286553951
C -1.5518776460 -1.0742414125 2.2103393113
C -0.1675620240 -1.5669450654 1.9257168831
O 0.4422112759 -1.3302560505 0.9063106172
O 0.2726695568 -2.3643752387 2.9107816190
C 1.6144120722 -2.8691491258 2.7245819567
H 2.8694620758 -1.1745380806 -0.1877853500
H 4.2140090367 -0.8639363408 -1.3294127389
H 3.7225938690 0.3612026699 -0.1141841980
H 3.7074071392 -0.0023415051 -5.4127817539
H 2.6182850220 -0.5005692719 -6.7503439733
H 2.7635684751 -1.5079342144 -5.2709741551
H -2.2879136425 3.1769817524 -2.1209162158
H -2.1819471039 1.6741037682 -3.0708479226
H -1.0660358511 3.0075374883 -3.4232403644
H 0.7027819154 1.2396171289 0.3282837132
H -3.3821619221 1.7781795408 2.5102508172
H -5.2249948817 0.1030614198 2.6567046769
H -4.6915562281 -2.3196415423 2.5635318216
H -2.3451579405 -3.0637172428 2.2905345101
H 2.3157786460 -2.0330297220 2.6625184399
H 1.8178574954 -3.4792123099 3.6037165601
H 1.6734062436 -3.4684412285 1.8122316016
