48
CONF164
Cl -5.7082381574 3.5708466471 -0.9360308051
C -5.3137857548 2.2656992675 0.1914087144
C -6.1830337477 2.0039484993 1.2379554089
C -5.8274660746 0.9750228922 2.1122867050
C -4.6645229900 0.2425374066 1.9381475614
C -3.7896757145 0.5185542821 0.8661859258
C -4.1319928874 1.5651507265 -0.0114649975
N -2.6468230257 -0.2615980648 0.6683158710
C -1.8213593916 0.0216412158 -0.5064618584
C -0.8277500860 -1.1062669446 -0.7403777403
N 0.0263783860 -1.3067059414 0.4296646266
C 1.0386176487 -2.3317786514 0.1642156268
C 2.1347210819 -2.3894981981 1.2264279865
C 2.7832701213 -1.0343742244 1.5074395994
N 3.2675670243 -0.3955797936 0.2937542836
N 4.1689914338 -1.0462484559 -0.5216080028
C 4.3406091432 -0.2205674148 -1.5359122480
C 5.1511951946 -0.3347145638 -2.6900236123
C 5.1404091064 0.6888578697 -3.5957824260
C 4.3370798466 1.8537511906 -3.3959640016
C 3.5599981774 1.9634749691 -2.2877018381
N 3.5724067398 0.9323807079 -1.3836080905
C 2.8615164965 0.8251649344 -0.1730149922
O 2.0928691738 1.6559552732 0.3089869572
C -0.8192234866 -1.6469433476 1.5740478856
C -1.8114730379 -0.5307238441 1.8514469110
H -7.0972482459 2.5698094061 1.3683639886
H -6.4874722290 0.7330272532 2.9396990794
H -4.4498958961 -0.5703549825 2.6212420527
H -3.4875919798 1.8468876951 -0.8328390100
H -2.4636592628 0.0958503180 -1.3890939700
H -1.2761033976 0.9764313268 -0.3924098621
H -1.3822941673 -2.0308567231 -0.9992966383
H -0.1990910151 -0.8416177173 -1.5988020866
H 0.5827494266 -3.3360181626 0.0629912840
H 1.4976540359 -2.0935126400 -0.8037141982
H 2.8952836290 -3.1017112331 0.8899539228
H 1.7510044536 -2.7728821437 2.1779734628
H 3.6209113354 -1.1528260069 2.2046329524
H 2.0620649597 -0.3393583121 1.9442812203
H 5.7542201401 -1.2249854986 -2.8242824783
H 5.7535094683 0.6214042888 -4.4879069418
H 4.3423012466 2.6552688894 -4.1237670398
H 2.9199011203 2.8040931424 -2.0470092718
H -0.1993950589 -1.7769863610 2.4672991452
H -1.3672262876 -2.5949916852 1.3993088905
H -1.2621769051 0.3842684391 2.1365620134
H -2.4377299815 -0.8244860190 2.6944805372
