45
CONF82
C -5.4114300526 -0.8767747044 2.8735866610
O -5.1078852574 0.0531522437 1.8141662007
N -3.8415935224 -0.1999521582 1.3312450106
C -3.5027084448 0.5922046286 0.3615321144
C -4.2907977447 1.6412482059 -0.2279389863
C -5.4777832164 2.2636075709 0.0867213467
C -5.7346147165 3.2016665771 -0.9473895380
C -4.7053508532 3.0913310176 -1.8341549324
O -3.8177262801 2.1532942339 -1.4191258054
C -2.0877132245 0.3813952664 -0.1188092644
O -1.3254610497 1.3248933588 -0.3210244592
N -1.7204528251 -0.9120031419 -0.2846513462
C -0.3885267999 -1.2641792470 -0.6625333366
C 0.8249840251 -0.8847640388 0.2562891363
N 1.4213769822 -0.2251553779 -0.9245098944
C 0.3327009121 -0.4277606241 -1.7497859828
O 0.1125507860 -0.1087896176 -2.8948076861
C 2.7822907769 0.0360976288 -1.1480073894
C 3.6359798464 -0.9776577842 -0.8676122646
C 3.0288845929 -2.3057195990 -0.5294842151
S 1.9195698389 -2.1711489080 0.9549083995
C 5.1328757937 -0.8722543483 -0.8491407327
O 5.6803370839 -1.6102392953 0.2664219224
C 5.5421391426 -0.9963664882 1.4839020327
O 5.0532175053 0.1142955964 1.6297103622
N 6.0179754738 -1.7849656584 2.4653697448
C 3.1795538258 1.3942044831 -1.5741077956
O 4.2806338598 1.6930697822 -1.9974450189
O 2.1628467697 2.2711076556 -1.4605377357
H -5.3880890867 -1.9037593377 2.4969462033
H -4.7033513649 -0.7565099505 3.6989008458
H -6.4194674507 -0.6167944311 3.1998069306
H -6.0834738114 2.0746574637 0.9567403301
H -6.5777243495 3.8718407780 -1.0246569277
H -4.4690536072 3.5838898301 -2.7651557326
H -2.3896688664 -1.6427468011 -0.0913894225
H -0.3565819451 -2.3224645168 -0.9346280848
H 0.5629404610 -0.1826666298 1.0536903457
H 2.4328753140 -2.6756837721 -1.3708427058
H 3.7852179732 -3.0479685144 -0.2728484580
H 5.5450837908 -1.3687168488 -1.7340102053
H 5.4721422729 0.1613588048 -0.8254775858
H 6.0016981103 -1.4463932144 3.4121946223
H 6.4152990670 -2.6880627244 2.2660799769
H 2.4762795662 3.1351510315 -1.7781368865
