71
CONF9
C -2.5684238542 -4.8840661332 -4.6736849290
C -3.6428577580 -3.8489987487 -4.8285380566
C -3.6607707024 -2.6721223244 -4.0624950388
C -4.6280017964 -1.6739481879 -4.2747553746
C -5.6005336075 -1.8813227678 -5.2494691519
C -5.6204115023 -3.0549989080 -5.9938964657
C -4.6476245167 -4.0216885543 -5.7835123151
C -4.6163697235 -0.4114616671 -3.4586497494
N -2.6645276083 -2.4353898969 -3.0829652681
C -2.3854401361 -3.2364495252 -2.0093177649
O -2.9262166253 -4.3023219122 -1.7647654471
C -1.2461788820 -2.6946170154 -1.1386519214
N -1.1721821432 -1.2372115358 -1.1364229114
C 0.1529236433 -0.7318263749 -0.7711666906
C 0.1770785626 0.7862377889 -0.8538823714
N -0.8313328023 1.3666330763 0.0355958371
C -2.1529534820 0.8517333290 -0.3174848581
C -2.1738473370 -0.6648560569 -0.2308211795
C -0.8230833552 2.8318760169 0.0099890480
C 0.4694126518 3.4309710011 0.5624873886
C 0.7507049543 3.0168073718 2.0108761888
C 2.2522389842 3.0243772934 2.3500202255
C 2.5515589388 2.8912826693 3.8341196308
C 1.6265827457 2.3964189570 4.7540773228
C 1.9536107590 2.2540061118 6.1016245418
C 3.2224236910 2.6142779043 6.5151083274
C 4.1721625074 3.1092448956 5.6352578414
C 3.8245868959 3.2402628826 4.2975279868
F 3.5486616104 2.4836018474 7.8213476811
C 2.9642037011 1.9361047199 1.5609440112
C 2.7730089485 0.5907097048 1.8891308665
C 3.3530749382 -0.4238926049 1.1384683404
C 4.1335263070 -0.0745731828 0.0473671456
C 4.3600629695 1.2435253365 -0.3057584357
C 3.7692257183 2.2440969847 0.4638690986
F 4.6978502754 -1.0572765909 -0.6916787536
H -2.5053594292 -5.5025899983 -5.5722368502
H -1.5929888646 -4.4172399328 -4.5031173134
H -2.7680505713 -5.5268335704 -3.8110778940
H -6.3548443747 -1.1178945347 -5.4164861040
H -6.3877028723 -3.2094513036 -6.7455941153
H -4.6482028680 -4.9287411513 -6.3810431108
H -4.6485825260 -0.6323273680 -2.3863205169
H -5.4771648679 0.2138512627 -3.7048901679
H -3.7135825406 0.1859150886 -3.6385513574
H -2.2361738012 -1.5167511920 -3.0237065408
H -1.3705897469 -3.1315102830 -0.1339239618
H -0.3146102447 -3.1000516447 -1.5558496062
H 0.4378058899 -1.0393263594 0.2536140931
H 0.8960086368 -1.1418532497 -1.4652652717
H 0.0127132356 1.0966675185 -1.9068132985
H 1.1728042319 1.1251249530 -0.5512736699
H -2.8915736627 1.2636900015 0.3807514281
H -2.4523191480 1.1575454234 -1.3423146216
H -3.1652114232 -1.0394202661 -0.5129894772
H -1.9823198017 -0.9745918181 0.8147360136
H -1.6690753119 3.1733523488 0.6224551599
H -0.9948615394 3.2162627152 -1.0161965252
H 1.3079251549 3.1444534226 -0.0812022557
H 0.3996678222 4.5229677277 0.4898133218
H 0.2196920477 3.6880414040 2.6971717299
H 0.3525057649 2.0079160207 2.1684032772
H 2.6665543639 3.9883957143 2.0228923125
H 0.6297780926 2.1179174141 4.4303203486
H 1.2389755422 1.8730211532 6.8224576944
H 5.1558688631 3.3824656255 6.0000010745
H 4.5608497082 3.6160826227 3.5920439552
H 2.1646986670 0.3321129916 2.7509541717
H 3.2125160277 -1.4698803776 1.3875158213
H 4.9854245547 1.4748856195 -1.1605971197
H 3.9353218995 3.2843472915 0.1973737787
