46
CONF50
C -4.3645900424 -2.2102845314 1.2523676927
C -3.6803779854 -1.5799115052 2.4427114246
C -2.1964267334 -1.6763827976 2.6026267472
C -2.8500671348 -0.3088105404 2.2825609348
C -2.5446126258 0.3102921428 0.9822360251
O -2.4403585238 -0.2589000562 -0.0879199720
O -2.3433944041 1.6453554676 1.1363853489
C -1.8311469057 2.3512439597 -0.0386956762
C -0.3470772471 2.1424919467 -0.1572213293
C 0.1680719190 1.2423780181 -1.0881997029
C 1.5413739092 1.0242300522 -1.1511929299
C 2.4147542977 1.6916232206 -0.2952977856
C 1.8923553306 2.5980749930 0.6234558225
C 0.5222827507 2.8282759352 0.6961863019
O 1.9644836380 0.0606213034 -2.0462001306
C 3.2290956935 0.1621093915 -2.6044216196
C 4.0002511084 -0.9941445642 -2.6442760570
C 5.2434748669 -0.9589694302 -3.2713955382
C 5.7111086143 0.2217836684 -3.8437276505
C 4.9239221706 1.3717987517 -3.7952926375
C 3.6761161544 1.3493797723 -3.1799154606
C -1.3382284528 -2.3481425922 1.6079491944
C -0.0439815509 -2.0723727834 1.4618930721
Cl 0.9785749279 -2.8836183479 0.3082822952
Cl 0.7632887944 -0.8336064839 2.3802795603
C -4.5040735430 -1.6343785081 3.7128180396
H -4.5766577225 -3.2620425288 1.4746809996
H -5.3187346787 -1.7066311442 1.0648292924
H -3.7672486370 -2.1536368707 0.3433160873
H -1.8209980618 -1.7145257795 3.6234989314
H -2.8802290096 0.3886963892 3.1124551285
H -2.0694899988 3.3975599735 0.1600542413
H -2.3616091217 2.0074710888 -0.9290893847
H -0.4906997897 0.6968237501 -1.7548384820
H 3.4817949594 1.5044711410 -0.3433697495
H 2.5671893103 3.1242212645 1.2914271809
H 0.1235783401 3.5364309918 1.4164179885
H 3.6206178452 -1.9032834858 -2.1894638775
H 5.8490873266 -1.8591813429 -3.3058730206
H 6.6818445262 0.2463424222 -4.3277401990
H 5.2776161103 2.2931411746 -4.2475391316
H 3.0544834894 2.2381341443 -3.1457191461
H -1.7602697522 -3.1119260247 0.9618944995
H -4.7269228059 -2.6762287087 3.9676514355
H -5.4532334199 -1.1062364518 3.5733563818
H -3.9749366346 -1.1797364855 4.5550784518
