82
CONF202
C -2.4189974156 2.8275969566 -1.9684528970
C -1.6905415900 2.6061040110 -0.6715022711
C -0.5358315473 3.2352330077 -0.4152594117
C -2.3360042765 1.7198937917 0.3669038661
C -3.5493452661 2.4026035171 1.0334978074
C -4.1730939280 1.2686088865 1.8417163405
C -4.0217937231 -0.0025454188 0.9656310236
C -2.9445497855 0.3722330947 -0.1102555427
C -2.0414363047 -0.8248840065 -0.4866294481
C -1.0957300142 -0.4929202689 -1.6441707977
C -0.0571315005 -1.5908023757 -1.8169907895
C 0.9259914482 -1.6624930096 -0.6264337653
C 2.2659039775 -0.8539807950 -0.9636372672
C 2.0559926441 0.4520230271 -1.7701053469
C 3.3740673184 1.1711375717 -2.0867179486
C 4.1658048626 1.5552231851 -0.8390039828
C 4.3564592723 0.3533747198 0.1263512942
C 3.0282399967 -0.4603944504 0.3352313013
C 2.0932612044 0.2870805573 1.3277906515
C 0.5885013165 0.0579782931 1.1629288558
C 0.2335771072 -1.3728482469 0.7606232227
C -1.3359110501 -1.6094895667 0.6887183254
C -2.0573941035 -1.2315162917 2.0065713520
C -3.5743869855 -1.2048031153 1.8194128442
C -1.5912734028 -3.1306533776 0.4864736102
C 0.8250701676 -2.3210324239 1.8266090920
C 5.4930592168 -0.5220265346 -0.4486307191
C 4.8903019484 0.8525127834 1.4816608598
O 3.5803161250 2.7217470416 -0.2144680024
C 3.0549073068 -1.8619121987 -1.8317866421
C -5.3433271526 -0.3848028340 0.3055277549
O -5.8999721733 0.7431357283 -0.3895756665
H -2.4521789702 1.9111313090 -2.5676431332
H -1.9315700208 3.6059014815 -2.5608575715
H -3.4598536545 3.1237093215 -1.7948503119
H -0.0074583355 3.0870537146 0.5238859964
H -0.0911159076 3.9187822493 -1.1341489445
H -1.6036366684 1.5385701334 1.1592396297
H -3.2468732788 3.2595457585 1.6444766756
H -4.2481880867 2.7542650334 0.2675270431
H -3.6058759897 1.1363246142 2.7715194314
H -5.2168734821 1.4534704791 2.1159636281
H -3.4942417733 0.6103831668 -1.0307004147
H -2.7568858057 -1.5493454380 -0.9022583839
H -1.6844574661 -0.3773299171 -2.5632011029
H -0.6000004890 0.4658201734 -1.4759824417
H 0.4922963791 -1.4512339689 -2.7519465087
H -0.5809783207 -2.5456861780 -1.9334751951
H 1.2646886720 -2.7040387080 -0.5626528634
H 1.4006015620 1.1358685429 -1.2164785093
H 1.5465151790 0.2504932352 -2.7173522465
H 4.0004810007 0.5513021177 -2.7347598167
H 3.1672401154 2.0860023489 -2.6556029699
H 5.1692470001 1.8913152114 -1.1349025619
H 3.3412060504 -1.4003172380 0.8099520245
H 2.3916893279 0.0098815484 2.3445578846
H 2.2629166597 1.3640260480 1.2674938154
H 0.1924160455 0.7471433939 0.4165699169
H 0.1113139517 0.3238517097 2.1120795379
H -1.7965507871 -1.9498972785 2.7905275264
H -1.7416226990 -0.2487492181 2.3698837414
H -3.9044627126 -2.1420006008 1.3539682640
H -4.0783747956 -1.1524841278 2.7924380435
H -2.6128332888 -3.3144680463 0.1431041496
H -1.4587712905 -3.6776063319 1.4245584336
H -0.9182893871 -3.5768231242 -0.2486382438
H 1.9006910700 -2.1749697542 1.9335871283
H 0.6718382729 -3.3705263753 1.5656905124
H 0.3740395682 -2.1400486547 2.8081466325
H 6.4525808429 -0.0141707795 -0.3021248671
H 5.3974381464 -0.7264868284 -1.5140695557
H 5.5372854275 -1.4815979458 0.0768668564
H 4.2039340116 1.5250578512 1.9946165193
H 5.8306263094 1.3936437415 1.3272140958
H 5.0966200343 -0.0014579362 2.1381548299
H 2.6213173165 2.6653264910 -0.3066327762
H 3.8618613212 -1.4181265811 -2.4113514140
H 2.3798515386 -2.3401752386 -2.5491766216
H 3.4844258629 -2.6490498102 -1.2027039479
H -5.1701909784 -1.2168795337 -0.3959859189
H -6.0442511370 -0.7334112710 1.0811352876
H -6.7123218333 0.4486302480 -0.8176881817
