68
CONF180
C 2.6224303689 -0.6555366972 -2.1781361396
C 1.3609678089 -1.5036504271 -2.3130686656
C 1.2597823082 -2.7257764486 -1.3602624420
C 2.4554052279 -3.6666645774 -1.5424023489
C 1.2534750861 -2.2066944563 0.0764297514
O 0.0281317889 -1.8041077264 0.4648978504
C -0.1284976182 -1.3572943970 1.8522128446
C -0.2811188610 -2.6011909166 2.7138848333
C -0.4551400014 -2.2404348427 4.1874545960
C -1.4960103377 -1.1722646585 4.3226835561
C -1.9230626726 -0.3917443777 3.3129638175
C -2.9576795990 0.6092282804 3.5288330867
C -3.2634843232 1.5477051626 2.6203321929
C -2.5172310028 1.7144139887 1.3289801143
C -1.1571763689 0.9799140681 1.3889091161
C -1.3697759399 -0.4691970382 1.8988190042
C -0.3793364652 1.0760165587 0.0735525948
C -0.1479466007 2.5174280696 -0.3851630236
C 0.8015442477 2.6097863587 -1.5638775658
C 1.1249091641 4.0273361253 -1.9870697971
C 1.9890179051 3.9901869998 -3.2296243215
C 1.2103913566 3.3066446123 -4.3480905472
C 0.4662357308 2.0524303013 -3.9511260723
O 0.1692015651 1.8471950455 -2.6558437113
O 0.0560491366 1.2533245824 -4.7703049072
O 2.3287137749 5.3349962080 -3.5832563461
C -3.4013801762 1.3094724142 0.1363377250
C -0.8105869609 -3.4755202737 5.0218104023
O 2.2375269321 -2.1308113416 0.7888356813
C -0.0385201811 -3.4832434884 -1.6768816040
H 3.5254847224 -1.2318161227 -2.3989564416
H 2.5853214467 0.1817716052 -2.8824953144
H 2.7252671252 -0.2406761316 -1.1699078961
H 0.4769372170 -0.8741247444 -2.1619961701
H 1.2928393405 -1.9003269147 -3.3343142336
H 2.3347868255 -4.5619444655 -0.9240772292
H 2.5132135705 -3.9772407934 -2.5906113137
H 3.3968049435 -3.1898965334 -1.2652976662
H 0.7666145663 -0.7946776664 2.1432801072
H 0.5904757692 -3.2494908792 2.5791317571
H -1.1687202192 -3.1505326554 2.3709827140
H 0.5022375918 -1.8462479180 4.5669414227
H -1.9353127792 -1.0290808650 5.3102651420
H -3.4952470258 0.5678791839 4.4743533911
H -4.0766714647 2.2445814336 2.8154622725
H -2.3096254598 2.7885063386 1.2220781798
H -0.5594741845 1.4931195627 2.1591406219
H -2.1313817385 -0.9505724049 1.2664948192
H -0.8908651955 0.5091223246 -0.7107750664
H 0.6029669446 0.6065287280 0.2019588894
H -1.0870205672 3.0121648381 -0.6593234950
H 0.2944276399 3.0987232224 0.4346271494
H 1.7307481530 2.0716338242 -1.3331107651
H 1.6578775759 4.5193909636 -1.1670648986
H 0.2028690147 4.5887703487 -2.1866133986
H 2.9053081573 3.4189565961 -3.0123452699
H 0.4354472737 4.0017402987 -4.7018841977
H 1.8419027687 3.0630663777 -5.2071586009
H 2.9153217819 5.3030107674 -4.3499665233
H -4.3628668566 1.8300778554 0.1905525086
H -3.6053993174 0.2342413790 0.1400746746
H -2.9337111050 1.5678366158 -0.8185389158
H -1.7632642654 -3.9001781901 4.6863981849
H -0.9055988854 -3.2168467820 6.0811971452
H -0.0372114090 -4.2441631684 4.9235758059
H 0.0384139077 -3.9179537262 -2.6787076732
H -0.2027126315 -4.2963414668 -0.9623383044
H -0.9070183231 -2.8209565735 -1.6543002022
