39
CONF63
C 2.5817266072 2.1256560110 -1.8439698313
C 3.2111215340 0.9383849413 -1.1169379402
C 3.0222481556 0.9701714690 0.4032759355
C 1.5766523733 0.8955565394 0.8422827362
C 1.3425324016 0.8290862937 2.3508371648
O 0.1882525673 -0.0141958005 2.4966829615
C -0.1402790721 -0.5428656629 1.2142257712
C -0.3654963622 -2.0550090534 1.3676888204
N -0.7844943297 -2.6567758018 0.1185311940
C -0.0469720751 -2.9341374828 -0.9823469471
N -0.8275661321 -3.3441325592 -1.9677295803
C -2.0676224563 -3.2837880414 -1.4053544183
N -2.0970884985 -2.8691658105 -0.1458794720
O 1.0081303568 -0.3589968211 0.4095037609
C -1.3538026514 0.1555249462 0.5947619366
C -2.5562923262 0.3787221221 1.2718670282
Cl -2.7860013075 -0.1059069191 2.9401296855
C -3.6490048434 0.9738675895 0.6497712069
C -3.5428802069 1.3358854466 -0.6851957010
Cl -4.9151999327 2.0833678980 -1.4725679964
C -2.3780757842 1.1073364729 -1.4043049828
C -1.3046068936 0.5169795702 -0.7534827061
H 1.4913683397 2.1340012044 -1.7471063693
H 2.9581566478 3.0757107039 -1.4487542760
H 2.8119353473 2.0935530820 -2.9126779011
H 4.2867501647 0.9148159105 -1.3267095812
H 2.7987525787 0.0010706348 -1.5079067713
H 3.4489267478 1.8973691464 0.8099506809
H 3.5638598326 0.1354318424 0.8649469478
H 0.9878921035 1.7196733321 0.4119127833
H 1.1326099910 1.8097668480 2.7902649467
H 2.1925459581 0.3655707216 2.8693645875
H 0.5757826145 -2.5009345980 1.7015150905
H -1.1431647216 -2.2360713103 2.1108903260
H 1.0286402669 -2.8242137147 -1.0069561097
H -2.9727030762 -3.5577530251 -1.9310632966
H -4.5674945695 1.1380241201 1.1984633012
H -2.3146290448 1.3756552823 -2.4517167631
H -0.3945100818 0.3127652559 -1.3062063226
