57
CONF202
C 0.4628226621 0.5713356563 -1.5052093263
C -0.9220156757 0.4719245437 -0.8886982399
C -1.7933600630 1.7064306092 -1.2251786872
C -1.1972348011 3.0332880118 -0.8382582004
C -0.3899141243 3.7473145075 -1.7297400072
C 0.1763810183 4.9647212830 -1.3610121692
C -0.0635882677 5.4920660836 -0.0938181566
C -0.8789410357 4.7971544076 0.7968659704
C -1.4408402566 3.5785687955 0.4256530622
C -1.6984996320 -0.7787790124 -1.2677901529
C -2.8045967330 -1.1658902218 -0.5034613674
C -3.5529017872 -2.2843740833 -0.8540898114
C -3.2191270908 -3.0244067616 -1.9866109353
C -2.1312339934 -2.6353656358 -2.7620682731
C -1.3731977564 -1.5218202460 -2.4039433577
O -0.7722362092 0.5398212170 0.5917959291
P -0.2770275761 -0.5481287992 1.6250213964
O -1.2620101029 -1.0551588034 2.6033309856
O 0.9248204528 0.1922139068 2.4135784258
C 1.9233312632 0.8844440983 1.7102828588
C 1.8097778832 2.2628085750 1.5924069556
C 2.8064845995 2.9627304192 0.9186595612
C 3.8962436954 2.2848445843 0.3745744070
C 3.9950858953 0.9022425361 0.5146889894
C 3.0057039698 0.1891758824 1.1885157075
O 0.4197304600 -1.6709411562 0.6975322162
C 0.4799040826 -3.0128246732 1.0995871612
C -0.1830871242 -3.9444962693 0.3137234633
C -0.0984250913 -5.2910448546 0.6584520017
C 0.6345857961 -5.6877873979 1.7750144278
C 1.2903312286 -4.7333032617 2.5498373206
C 1.2199887405 -3.3830279423 2.2148150347
H 1.0360138918 -0.3426770813 -1.3400433215
H 0.9972526105 1.4131239435 -1.0605307782
H 0.3819116304 0.7510505340 -2.5804354624
H -2.7613072070 1.5722053069 -0.7322527207
H -1.9674061400 1.6680170670 -2.3059592822
H -0.2054638804 3.3452233532 -2.7222611448
H 0.8016703742 5.5044823974 -2.0658873175
H 0.3753960746 6.4422628842 0.1944790650
H -1.0791784460 5.2052065233 1.7831594804
H -2.0760368504 3.0407549152 1.1236491026
H -3.0769270938 -0.5982129495 0.3806404925
H -4.3994704610 -2.5772448368 -0.2409649535
H -3.8025638865 -3.8975336153 -2.2611101043
H -1.8609034732 -3.2039735879 -3.6464972900
H -0.5232598213 -1.2459486313 -3.0174137234
H 0.9456505236 2.7691941241 2.0075393957
H 2.7234687332 4.0399643089 0.8146260170
H 4.6693130920 2.8337395122 -0.1531521960
H 4.8454031049 0.3709946096 0.0991118396
H 3.0678769484 -0.8872245187 1.3047101188
H -0.7530971349 -3.6125014299 -0.5474745373
H -0.6126457729 -6.0296730887 0.0516858258
H 0.6949610253 -6.7379156038 2.0411339001
H 1.8630478630 -5.0363603318 3.4204516552
H 1.7293387685 -2.6306905179 2.8083386591
