55
CONF32
C 4.1344797637 -3.6915402470 -3.3388863477
O 4.7251660910 -2.8842185294 -2.3101959812
C 3.8864689339 -2.1767671700 -1.5044119502
C 2.4918584885 -2.1979720991 -1.5996371917
C 1.7323921188 -1.4323910807 -0.7185893972
C 2.3321383404 -0.6381102475 0.2590102142
C 3.7297770248 -0.6397555695 0.3467714284
C 4.5025804660 -1.3938785456 -0.5210482183
C 1.5455335445 0.2375903920 1.1994212114
S 0.1675355155 -0.7656004101 1.9492963841
C -1.0266063412 0.4697302168 2.4258067927
C -1.3551664615 0.5909054029 3.7789249983
C -2.3634398561 1.4541624825 4.1918505005
C -3.0300916968 2.2337083107 3.2502923494
C -2.6991334497 2.1381647803 1.9043743503
C -1.7151082372 1.2449286197 1.4723133565
N -1.4326520297 1.1486597668 0.0827392585
C -2.5425031057 0.9266889502 -0.8639933005
C -2.7524289824 -0.5530828063 -1.1684913057
N -3.1592110411 -1.3335777331 0.0005750702
C -4.5455524974 -1.0589405572 0.3805330233
C -2.9879485132 -2.7630860113 -0.2651972994
C -0.1718350575 1.2304364901 -0.4327623616
O 0.0636839887 1.1207450713 -1.6339700280
C 0.9532320505 1.5090696259 0.5695699434
O 2.0473531098 2.1591265877 -0.0987212386
C 1.7947905948 3.4162215278 -0.5440439224
C 2.9702442629 3.9735547280 -1.2814378588
O 0.7329923165 3.9759684899 -0.3664120993
H 4.9692746195 -4.1551115350 -3.8648870038
H 3.5547113908 -3.0757654638 -4.0360832825
H 3.4925677316 -4.4686676909 -2.9082028424
H 1.9882689946 -2.8025036501 -2.3439426315
H 0.6509250465 -1.4648282615 -0.8013235888
H 4.2190591543 -0.0347502393 1.1050501477
H 5.5854995340 -1.3912877737 -0.4493499468
H 2.2055664311 0.5668140126 2.0082583999
H -0.8158168649 -0.0081440706 4.5051373364
H -2.6141935281 1.5277163203 5.2448405728
H -3.8005873529 2.9310388344 3.5624030931
H -3.2043765555 2.7666414978 1.1785692276
H -2.3064431391 1.4518875713 -1.7923933559
H -3.4438694703 1.3756547872 -0.4455928014
H -3.4929338626 -0.6292877433 -1.9907180401
H -1.8080108964 -0.9626387154 -1.5452093055
H -4.6738058619 -0.0068635632 0.6532739254
H -4.8094356232 -1.6624822220 1.2548482011
H -5.2586962761 -1.2955298400 -0.4327243048
H -3.2672284140 -3.3391378940 0.6231441600
H -3.6079359604 -3.1157163031 -1.1120911907
H -1.9382646968 -2.9731360014 -0.4972237123
H 0.5887707228 2.1671801837 1.3639223853
H 2.8871001675 5.0583841048 -1.3397855473
H 3.9082022097 3.6788957533 -0.8070062384
H 2.9631013547 3.5608987677 -2.2965944397
