38
CONF9
C -6.5880839639 0.5894149649 1.6535071439
C -5.1918661416 0.8857112512 1.1240459284
C -5.1136132077 0.4751094389 -0.3453762605
O -5.4908452164 1.1988455547 -1.2437342005
O -4.6466405443 -0.7649251928 -0.5076152110
C -4.5762813210 -1.2320413422 -1.8812958419
O -4.2738785197 0.1752834066 1.9568056353
C -2.9347397109 0.4026958693 1.7879318085
C -2.0941134189 -0.3526828233 2.6121280013
C -0.7185046979 -0.2012050828 2.5284634459
C -0.1939158455 0.7051244388 1.6175492753
C -1.0091260275 1.4639129537 0.7988254694
C -2.3931496207 1.3150375454 0.8791233945
O 1.1969051287 0.9124020298 1.5884508463
C 1.9296957722 0.1723450100 0.7298400603
C 3.3225930403 0.3855100564 0.7192067345
C 4.1010057447 -0.3512288880 -0.1453591158
C 3.4715875322 -1.2796937521 -0.9802489944
C 2.0954071037 -1.4275121464 -0.9021742765
N 1.3433696441 -0.7099537989 -0.0598373385
C 4.2987011663 -2.1113236773 -1.9076341511
F 3.5491875299 -2.7522476700 -2.8302215566
F 5.0041852304 -3.0644647603 -1.2398322157
F 5.2114734586 -1.3635231213 -2.5777753950
Cl 4.0426756184 1.5620326850 1.7831155321
H -7.3307408715 1.1182267264 1.0516111163
H -6.6631586017 0.9303988091 2.6887182091
H -6.7901530383 -0.4844118408 1.6121733191
H -4.9943598469 1.9641839108 1.1691322128
H -5.5756006485 -1.2449733174 -2.3217645546
H -3.9201728298 -0.5793739549 -2.4615032708
H -4.1658767524 -2.2386215709 -1.8208179524
H -2.5340299067 -1.0534328562 3.3136149822
H -0.5715557479 2.1666952770 0.0977880316
H -3.0183339490 1.9191351295 0.2326663846
H 5.1755679869 -0.2058190789 -0.1735939699
H 1.5707456196 -2.1397255252 -1.5324900152
H -0.0546264750 -0.7812255092 3.1606809488
