63
CONF108
C 3.7028187814 -0.1761434033 1.1442632145
C 2.6266431527 -1.1752801660 0.7306169125
N 1.3520701039 -0.4975593504 0.4558298931
C 1.5280068680 0.4399581009 -0.6617199820
C 2.5513056285 1.5181006582 -0.3170646380
C 3.8864750868 0.8669520627 0.0425773914
N 4.9158888070 1.8508036746 0.3746618897
C 4.9323176961 2.7666206194 1.4238168992
C 4.0323071957 3.0457869848 2.4452168726
C 4.3704858541 4.0542119068 3.3527221667
C 5.5689314915 4.7615875307 3.2449486234
C 6.4776553721 4.4848015013 2.2204547958
C 6.1415520131 3.4860540642 1.3220429609
N 6.8124177466 2.9845233378 0.2219922242
C 6.0818722387 1.9759426748 -0.3799766853
O 6.3948109173 1.3245630772 -1.3737962357
C 0.3105646997 -1.4914650301 0.1612324554
C -1.1026692300 -0.9149831617 0.1590122787
C -2.1452676320 -2.0116810849 -0.0521410761
C -3.5874510337 -1.4784614255 -0.1150466596
C -3.8500168008 -0.5106390910 -1.2570658034
C -4.8250890590 0.4786098565 -1.0932459410
C -5.1463130832 1.3617041946 -2.1195182589
C -4.4690272776 1.2383302826 -3.3206734042
C -3.4936498698 0.2801487313 -3.5293410433
C -3.1904869814 -0.5927122842 -2.4862870694
F -4.7700410078 2.0962972791 -4.3322519066
C -4.5745692691 -2.6352037281 -0.1468138577
C -4.7268339093 -3.4222562942 -1.2923789262
C -5.5970946727 -4.5076756598 -1.3105377166
C -6.3169021586 -4.7896299692 -0.1611680992
C -6.2020104103 -4.0373446076 0.9935383871
C -5.3213004012 -2.9569277305 0.9884841732
F -7.1720024099 -5.8475813593 -0.1708160251
H 4.6481184898 -0.7015234237 1.3194367175
H 3.4058088417 0.3039463917 2.0827334426
H 2.4695450382 -1.8997399752 1.5375111771
H 2.9740524927 -1.7417636178 -0.1585858623
H 1.8524893194 -0.0991886621 -1.5764733560
H 0.5706887530 0.9175532358 -0.8882823810
H 2.1759573483 2.1154148861 0.5206507450
H 2.6838236671 2.1873937480 -1.1742533285
H 4.2681339193 0.3569837502 -0.8504146207
H 3.0975960102 2.5094035303 2.5476156581
H 3.6810152916 4.2873332321 4.1574580468
H 5.8016212182 5.5384582013 3.9657005250
H 7.4116757513 5.0288259845 2.1281128243
H 7.7099156131 3.2863000555 -0.1216262807
H 0.3688828684 -2.2672672467 0.9356223438
H 0.5037581136 -1.9950821504 -0.8085918688
H -1.2880759485 -0.4096978432 1.1156719682
H -1.2090978950 -0.1597485906 -0.6267040078
H -1.9203266986 -2.5817043005 -0.9630357138
H -2.0931398758 -2.7315204768 0.7743911457
H -3.7722735313 -0.9280498697 0.8159208294
H -5.3472325802 0.5592161309 -0.1435233032
H -5.9005779529 2.1310358201 -1.9938563840
H -2.9812051491 0.2219244153 -4.4835948433
H -2.4188511974 -1.3388904476 -2.6460469917
H -4.1636341313 -3.1856815628 -2.1901839108
H -5.7210574617 -5.1223450334 -2.1956615600
H -6.7870423721 -4.2902760404 1.8712167242
H -5.2159629862 -2.3557248069 1.8872253594
