54
CONF9
C -2.7202947986 -0.6867324457 1.7881206237
C -2.4481455136 0.0498114651 0.4547476779
C -3.0227147624 1.4844668770 0.5027961121
C -4.5469180829 1.5364890215 0.5270791458
C -5.1490465648 0.7868475599 -0.6296046501
O -6.2568318669 1.0704955588 -1.0930673837
C -4.3784674736 -0.3398155197 -1.1314751541
C -3.1785937007 -0.7237006335 -0.6371238239
C -2.5559182462 -1.9878877187 -1.1364022264
C -1.1130609358 -1.7370958238 -1.5639503545
C -0.3080110691 -1.1940061612 -0.3886287576
C -0.8987671125 0.1250593089 0.1612043157
C -0.0451099145 0.5116824455 1.3787976343
C 1.4263730957 0.6995980727 0.9989269164
C 2.0669038203 -0.5312822274 0.3616979852
C 1.1706148448 -1.0778278888 -0.7797367032
C 1.4891226033 -0.1742419369 -2.0008227860
C 2.8680165151 0.4692199491 -1.7272369706
C 3.3582238519 -0.1991586265 -0.4289194648
C 4.4123706216 0.4978241491 0.3865136933
O 4.5811161423 0.2385131296 1.5700672880
C 5.3154896249 1.4978866272 -0.2905105702
O 6.3341518621 1.9596767090 0.5688058790
C 2.3388308119 -1.6356073117 1.3491541460
O 1.9684110845 -1.6648401658 2.5043097520
O -0.5160766008 1.7402983600 1.9587544602
H -2.2252387963 -1.6613891523 1.8172254592
H -3.7922713643 -0.8549903386 1.9237030252
H -2.3567519771 -0.0873102091 2.6270389720
H -2.6720233698 2.0183093009 -0.3902875510
H -2.6201904931 2.0074691980 1.3683981205
H -4.9110652803 2.5683268863 0.5121144190
H -4.9403096552 1.0778836919 1.4458093141
H -4.8555749061 -0.9348046721 -1.9078941676
H -3.1529106653 -2.4017269980 -1.9540292788
H -2.5556620815 -2.7294735227 -0.3238348596
H -1.0969563591 -1.0207459700 -2.3954436619
H -0.6616759283 -2.6685683467 -1.9252416574
H -0.3650825356 -1.9410427452 0.4188031886
H -0.7699041924 0.9045363199 -0.6042275860
H -0.1212977136 -0.2936221153 2.1218753719
H 1.9852184343 0.9731786933 1.9015910833
H 1.4854857288 1.5479943556 0.3060352133
H 1.5215387251 -2.0934670328 -1.0150321377
H 1.4941172662 -0.7682608169 -2.9180682422
H 0.7283189122 0.6010383735 -2.1268818601
H 3.5740468248 0.3136903663 -2.5466703028
H 2.7631986161 1.5488187278 -1.5871414793
H 3.8290146942 -1.1602151154 -0.7005806224
H 4.6861301127 2.3324601768 -0.6414183679
H 5.7435951572 1.0283313633 -1.1902151403
H 6.1538293957 1.5524650857 1.4337319400
H 2.9050470240 -2.4920796116 0.9155993456
H 0.0357053015 1.9175217096 2.7315452016
