45
CONF18
C -4.1328243073 -3.7308748714 -2.9170128965
C -3.7392634300 -2.3110702766 -3.1694329022
C -3.0259039866 -1.5572079892 -2.3257550782
C -2.6858595704 -0.1532540492 -2.6062683650
C -1.2864276541 0.4414431327 -2.3133172749
C -2.5279761402 0.8928427961 -1.5400675438
C -2.6937742253 0.5353473962 -0.0814509981
C -3.0051293197 2.2899498848 -1.8753012307
C -0.2288606724 -0.3633453386 -1.6912601162
O -0.3509180148 -1.2782340762 -0.8995092155
O 0.9938840411 0.0621926901 -2.1305696371
C 2.1369230581 -0.6221824262 -1.5570459790
C 2.3566042968 -0.2082750453 -0.1298033994
C 2.2656895412 -1.0986337889 0.9343262947
C 2.4446328579 -0.6794261205 2.2461261673
C 2.7154415443 0.6464117517 2.5620398166
C 2.8220748640 1.5323185400 1.4947705651
C 2.6483601818 1.1158072761 0.1849221603
F 2.7683418945 2.0184018033 -0.8047272121
F 3.1054732437 2.8253586202 1.7306539494
C 2.9479565062 1.0981501288 3.9726379108
O 4.3566026843 1.0721387976 4.2106624643
C 4.6594905040 1.5211421919 5.5326234724
F 2.3459775406 -1.5932063888 3.2280338992
F 2.0114363062 -2.3971577832 0.7097545277
H -3.7387864781 -4.3918779786 -3.6988001698
H -5.2235814420 -3.8459186671 -2.9338642355
H -3.7631691214 -4.0817227858 -1.9491865835
H -4.0679194406 -1.8761052726 -4.1148320111
H -2.6873077345 -1.9864857245 -1.3870066357
H -3.0845502977 0.2126142684 -3.5506962419
H -0.9210230810 1.1441341404 -3.0542307257
H -3.7568978423 0.5778950088 0.1802271811
H -2.1642498943 1.2640388655 0.5422597190
H -2.3149739702 -0.4568011797 0.1593263926
H -2.8791332561 2.5145617742 -2.9382505850
H -2.4485663631 3.0344163737 -1.2951441348
H -4.0676760577 2.3898438036 -1.6263661129
H 2.0020222673 -1.7022413726 -1.6284374574
H 2.9769309333 -0.3099583401 -2.1798020538
H 2.4271034323 0.4321348647 4.6740102713
H 2.5571684354 2.1169701436 4.1074756469
H 4.1877461737 0.8750993253 6.2868830121
H 5.7446433896 1.4749426316 5.6429977206
H 4.3202693918 2.5558229644 5.6850747244
