110
CONF101
C -2.9768195828 -0.0937101441 -1.1480482891
N -3.8415148384 -0.5477410022 -2.2593693709
C -3.2442671784 -1.7898025094 -2.7966066159
C -2.3934993434 -2.3512103423 -1.6408551301
C -2.6513393095 -1.4145803298 -0.4327206626
C -1.4780918415 -1.3272666859 0.5052135150
C -0.1773367596 -0.9327659007 0.2542538035
C 0.7900542005 -0.9535524244 1.2647159372
C 0.3827123033 -1.3745331780 2.5491051496
O 1.3402770410 -1.3192747280 3.5237999219
C 1.0413860863 -1.8543741650 4.8187061223
C -0.9177449298 -1.8131042909 2.8129163812
C -1.8472255490 -1.7684097548 1.7730741572
N -3.1866930724 -2.1027248383 1.8336391649
C -3.5905955668 -3.2227910777 2.6769137199
C -3.8090113439 -1.9388285274 0.5066168838
C -5.0621636389 -1.0023554001 0.5453423672
O -5.8163288962 -1.1468981929 -0.6526363720
C -4.6467713379 0.4573204533 0.7623744530
O -5.8098461920 1.2772098772 0.8866213951
C -3.6476114080 1.0182543570 -0.3197786465
C -2.5885143507 1.8438468467 0.4676839280
C -1.5612324117 2.6080739697 -0.3613860078
C -4.3492393460 1.9637782830 -1.2692857903
C -4.5147549538 1.7528769013 -2.5743018641
C -4.0972892233 0.4872798981 -3.2522612242
C -5.9817263778 -1.4171208985 1.7181315573
N -6.9875784591 -2.2445915047 1.3677617234
O -5.7772767311 -1.0560481635 2.8763686124
C 2.2177583680 -0.4359307125 1.0007706476
C 2.6391107873 -0.7454824092 -0.4696220840
C 4.1383707994 -0.6427831586 -0.8090869825
C 4.7049752930 0.7790519546 -0.8059424194
N 4.2103309456 1.6268930801 -1.9149216556
C 3.6641612261 0.9058448052 -3.0686876703
C 4.5212863343 -0.3184036525 -3.3631726175
O 5.8921670322 0.1215656936 -3.5519035809
C 4.1296291958 -0.9985362321 -4.6799680031
C 2.6530481720 -1.3656786293 -4.8269549089
C 4.4459303650 -1.3040587351 -2.1754812473
C 3.3932373345 2.7719960966 -1.5259364799
C 2.0245765623 2.4710936567 -0.8658708552
C 2.0803890780 2.2012321711 0.6092867034
C 2.2138383391 1.0392533872 1.3577034104
N 2.1910804065 1.3731891208 2.7031113416
C 2.0735782511 2.7255708497 2.8575176090
C 2.0233128507 3.5060813047 4.0120489935
C 1.8924495101 4.8797942836 3.8478771008
C 1.8152616961 5.4563684473 2.5659017092
C 1.8693408385 4.6727441776 1.4204316496
C 2.0021422110 3.2824553325 1.5542625847
C 3.2514554519 -1.2073456883 1.8449137217
O 4.1443323423 -0.7151665368 2.5017692983
O 3.1118673643 -2.5294508360 1.6549500920
C 4.0579585275 -3.3608011850 2.3669912543
H -2.0333711963 0.3017135569 -1.5624256792
H -2.6149285513 -1.5703769731 -3.6716953253
H -4.0404382892 -2.4713732938 -3.1165126135
H -1.3317325328 -2.3026562313 -1.8986997756
H -2.6288462894 -3.3900315681 -1.3984239775
H 0.0923981438 -0.6062215513 -0.7448531766
H 1.9611606819 -1.7522349497 5.3956694660
H 0.2377117164 -1.2874723512 5.3020718506
H 0.7622232010 -2.9116855143 4.7482402150
H -1.2061622242 -2.1485123892 3.8002679693
H -3.4663634644 -2.9713093571 3.7347495471
H -4.6458709184 -3.4450508020 2.5163134129
H -3.0006049497 -4.1262746321 2.4540889106
H -4.1714452823 -2.9100778066 0.1400402581
H -5.1637614855 -0.9351383101 -1.4064573234
H -4.1559476001 0.5002555628 1.7389597123
H -6.3207697617 1.1497419975 0.0735084530
H -3.1510966589 2.5533448199 1.0886168443
H -2.0727677549 1.1652412353 1.1571361885
H -0.9098883372 1.9380311895 -0.9296517513
H -0.9148025160 3.1951436915 0.2992624918
H -2.0405528832 3.2946433070 -1.0665113271
H -4.6758386176 2.9066941429 -0.8374330012
H -4.9662698956 2.5182365502 -3.2005699102
H -3.2000489136 0.6717435078 -3.8764319865
H -4.8858240813 0.1426852121 -3.9348292265
H -7.1723769277 -2.4198145299 0.3926628993
H -7.6558914018 -2.5303949149 2.0662245261
H 2.0572900894 -0.1206637099 -1.1424076661
H 2.3254505334 -1.7768015019 -0.6559723783
H 4.6978603047 -1.2043800886 -0.0512572023
H 5.8007426478 0.6882551345 -0.8753558874
H 4.4937495170 1.2793946556 0.1420269579
H 2.6210592698 0.5736772017 -2.9357108368
H 3.6726761770 1.5828926804 -3.9357940094
H 5.9815086101 0.9512535801 -3.0597403697
H 4.4194052179 -0.3242783317 -5.4943978100
H 4.7506586360 -1.8985581844 -4.7779916281
H 2.2903496884 -1.9681574384 -3.9875158725
H 2.5020868949 -1.9491558444 -5.7401542000
H 2.0217964810 -0.4746679562 -4.8977870678
H 5.4114327752 -1.8182033857 -2.1302852799
H 3.6900247584 -2.0697576969 -2.3796463458
H 3.9768898928 3.4052415728 -0.8445393706
H 3.2138629289 3.3594417441 -2.4364388209
H 1.5058407326 1.6843536947 -1.4187825096
H 1.4023701120 3.3640811872 -1.0026672182
H 2.2863366939 0.7019056245 3.4484325462
H 2.0816490183 3.0570777539 4.9989325499
H 1.8484752710 5.5194690322 4.7239371495
H 1.7130159662 6.5334183950 2.4747061903
H 1.8125574189 5.1346727648 0.4387111906
H 5.0787633933 -3.1273962410 2.0542299445
H 3.9554326622 -3.2031404931 3.4439369175
H 3.7992752503 -4.3852758406 2.1022373324
