52
CONF17
C -3.7066185199 1.6567031224 3.2051008196
O -3.8280936770 1.7596381084 1.7870768108
C -2.7541994716 1.3767688584 1.0451082277
C -1.5422746739 0.9386850783 1.5822781707
C -0.5108106475 0.5402439315 0.7331254702
C -0.6774648255 0.5953086995 -0.6500626005
C -1.8858847236 1.0456168896 -1.1874700973
C -2.9285455723 1.4497694121 -0.3445147672
O -4.0882243539 1.9531255812 -0.8704372316
C -5.0899319076 0.9509417716 -1.0902267124
O -2.1469693886 1.1301587201 -2.5219405767
C -1.0992530734 0.7594273822 -3.4132014261
C 0.7812827952 0.0107157807 1.3467250837
C 0.6867662515 -1.4603867647 1.7580977897
C 0.5894717469 -2.3597054188 0.5399008533
C 0.0676273649 -3.6520392938 1.1584740226
O -0.7711049465 -3.2190473965 2.2641977225
C -0.4386397710 -1.9464421925 2.6490675039
O -0.9613527540 -1.4088168521 3.5867665171
C 1.9280747937 -2.3762175237 -0.1697379746
C 2.4577402600 -0.9587943758 -0.3404487502
C 3.5192463448 -0.7852802307 -1.2540070405
C 4.0420910843 0.4740048753 -1.3910219001
C 3.5526928068 1.5544525444 -0.6651819976
C 2.5177325053 1.4140652360 0.2232988708
C 1.9634108789 0.1298111498 0.3946651915
O 4.2204506098 2.6978785290 -1.0248021400
C 5.3214539640 2.2462407092 -1.8319137550
O 5.0375074911 0.8977662195 -2.2384471760
O 1.8543778073 -2.9815707518 -1.4692756983
H -2.9244530639 2.3258952461 3.5857599930
H -4.6731064557 1.9653510811 3.6056745767
H -3.4884531179 0.6267850702 3.5144682360
H -1.3987890294 0.8733024140 2.6523805048
H 0.1403486500 0.3036198596 -1.2962317191
H -4.7370568317 0.2018567865 -1.8105310993
H -5.9600099584 1.4691613498 -1.4987775788
H -5.3629435803 0.4618822659 -0.1467309355
H -1.4992089243 0.9085318539 -4.4170974943
H -0.8150125917 -0.2934736972 -3.2846816910
H -0.2142798384 1.3938116286 -3.2742975677
H 0.9934033236 0.6075553022 2.2420659620
H 1.6093597699 -1.7108277365 2.3123036619
H -0.1656086809 -1.9516340053 -0.1440122796
H 0.8800474072 -4.2718442151 1.5653020284
H -0.5576283252 -4.2548327647 0.4961882611
H 2.6513858736 -2.9382274588 0.4514895041
H 3.8873854462 -1.6211166191 -1.8356108772
H 2.1180072127 2.2637038937 0.7662317925
H 5.4066002481 2.8824883840 -2.7168659707
H 6.2419248715 2.2579762021 -1.2279641473
H 1.7575295885 -3.9329874174 -1.3502567670
