28
CONF18
O -1.5610516187 2.4899693466 -0.2389258066
C -2.4893893696 1.6005637711 -0.8511474981
C -2.0989384478 0.1466103691 -0.6568150110
O -0.7887991385 -0.0272452191 -1.2181121639
C -0.1004852649 -1.0851334155 -0.5360333499
C -0.9532517984 -1.4418983924 0.6944817960
C -1.9735476975 -0.3116222744 0.8021851731
O -3.1937421004 -0.8091507472 1.3379827067
N 1.2508981133 -0.6182233387 -0.2189835911
C 1.4251053895 0.4922469950 0.5709505552
C 2.6343070466 1.0096641553 0.8670001299
C 3.8347506684 0.3967359723 0.3374615509
O 4.9816261518 0.7611547994 0.5266893468
N 3.5657959880 -0.7289472356 -0.4692600550
C 2.3443409636 -1.2858705021 -0.7969946006
O 2.2319841148 -2.2650534335 -1.5098622603
H -0.7306745923 2.3931336874 -0.7216203720
H -3.4624402554 1.7778266456 -0.3781445588
H -2.5962746133 1.8144307301 -1.9243046179
H -2.8297155716 -0.5058477714 -1.1638467180
H 0.0405716305 -1.9347972103 -1.2079453472
H -0.3481568576 -1.5762074646 1.5933140482
H -1.4982443471 -2.3726492062 0.5092390326
H -1.5929950539 0.5186161464 1.4128804760
H -3.7051174253 -0.0677761077 1.6786521316
H 0.5072129654 0.9414975034 0.9364129900
H 2.7372039095 1.8839066934 1.4940469780
H 4.3690278091 -1.1959338772 -0.8693009645
