61
CONF163
C -3.9928391261 1.8487895484 -3.5095787386
C -4.2335592502 0.4817582367 -2.8707045963
C -3.9339714341 0.4862589790 -1.3725808788
C -4.1657324466 -0.8620249440 -0.6801894964
C -3.1446748251 -1.9500124456 -1.0934878620
C -2.0777672158 -1.9576259150 0.0424093871
N -2.4797968800 -0.8807429337 0.9530868239
C -3.9391801834 -0.7765594602 0.8299376060
C -2.0110002430 -1.0836534114 2.3205169295
C -0.6793248526 -1.7491387018 -0.5190485116
O -0.0045287254 -2.7050110313 -0.9395796778
N -0.2702960317 -0.4713805819 -0.5540893269
C 0.9935398389 -0.0234744104 -1.1103222602
C 2.0538461806 0.2530069576 -0.0231904029
C 2.9260950058 -0.9661069935 0.2876351187
C 3.9030446203 -0.6354103768 1.4210192840
C 3.1561002324 -0.0339600269 2.6222101004
C 2.2263906499 1.1152508908 2.2040534904
O 1.3659494253 0.7200914375 1.1468513727
S 3.1439450015 2.6941976481 1.8586431960
C 1.7975810987 3.8677323912 2.2791414861
O 2.3888728273 -1.0378917873 3.2891337954
O 4.8488897178 0.2870872446 0.8812113714
O 2.1800143243 -2.1042918645 0.7241805868
C 0.7636188680 1.1852637312 -2.0415099837
C 0.2221556856 2.4253899504 -1.3453414400
O -0.0696746097 0.7958360556 -3.1412215090
H -4.2054764859 1.8332149761 -4.5830700238
H -4.6292377918 2.6131290343 -3.0499161493
H -2.9500232644 2.1609607700 -3.3778922863
H -5.2765353922 0.1757492747 -3.0277375546
H -3.6115551286 -0.2680029111 -3.3760731696
H -4.5706106540 1.2399084981 -0.8889977392
H -2.8957524538 0.8063999759 -1.2085141667
H -5.1871683937 -1.1961415569 -0.8958319601
H -3.6175338695 -2.9328040061 -1.1550172478
H -2.6938748424 -1.7432926054 -2.0681156127
H -2.0694485404 -2.9404159067 0.5433980250
H -4.4459665833 -1.6149737637 1.3455395397
H -4.2942948149 0.1620866144 1.2706508639
H -2.4145402173 -2.0105303704 2.7674026093
H -2.3133842704 -0.2359773381 2.9437854171
H -0.9163547222 -1.1418795850 2.3363440678
H -0.8561974512 0.1741413440 -0.0333039086
H 1.3650661848 -0.8349662391 -1.7467586791
H 2.7293329200 1.0436642449 -0.3852741549
H 3.5081393089 -1.2036384579 -0.6161256134
H 4.3927631245 -1.5648923256 1.7450354951
H 3.8820426443 0.3438474733 3.3514707930
H 1.5636549710 1.3344904605 3.0468423749
H 0.9100093885 3.6654450690 1.6747594515
H 1.5510984621 3.8071468479 3.3422243074
H 2.1641876440 4.8709090014 2.0489153785
H 1.9447647555 -1.5553521715 2.5947148598
H 5.5010381668 0.4835679616 1.5659341459
H 1.5472475857 -2.3733934715 0.0267670076
H 1.7354210014 1.4184062878 -2.4921224575
H -0.7625102541 2.2385230728 -0.9012558947
H 0.9013901425 2.7543779160 -0.5536342910
H 0.1167849798 3.2336738234 -2.0740949317
H -0.9397528545 0.5711409430 -2.7825017990
