47
CONF37
C -7.5343289681 -0.4095684853 2.4873387972
O -6.5245375980 -0.1389553480 1.4883636097
P -5.7601619977 -1.3573757107 0.7786488407
S -5.2320215623 -2.8510189974 1.8825077952
O -6.7386297600 -1.6603205300 -0.4567149104
C -6.4921650233 -2.8092481053 -1.2978120247
O -4.5796261144 -0.5522459567 0.0083447558
C -3.4419229478 -0.1240053892 0.6978780378
C -2.3163213344 -0.9379182556 0.7219719992
C -1.1684550396 -0.4882103890 1.3588249112
C -1.1431870018 0.7804410595 1.9447920716
C -2.2812893675 1.5879549663 1.9036324942
C -3.4421941613 1.1304280240 1.2890919291
S 0.2863792433 1.3832296212 2.8301974092
C 1.6369013925 0.9184002349 1.7573950293
C 1.5682316633 1.0714562058 0.3704432996
C 2.6585945296 0.7490490967 -0.4248493837
C 3.8323924519 0.3080850359 0.1775766211
C 3.9226445005 0.1664510727 1.5541697113
C 2.8162759563 0.4562346178 2.3439700453
O 4.9458692339 -0.0647946755 -0.5687005560
P 5.5618327232 0.8335598162 -1.7722567311
S 5.5602821292 2.7477496641 -1.5322760569
O 4.7508441658 0.2303926575 -3.0199839211
C 4.9387515356 0.8169009568 -4.3288119700
O 6.9825842337 0.1106282337 -1.9655644254
C 8.0931608614 0.4859279206 -1.1206138240
H -8.4000588210 -0.8963452315 2.0279278305
H -7.8226163875 0.5630198977 2.8873603758
H -7.1237303844 -1.0421345298 3.2793404333
H -6.4399356659 -3.7189960186 -0.6924837946
H -7.3350534887 -2.8584752705 -1.9878843601
H -5.5605703760 -2.6755558223 -1.8567845400
H -2.3563203328 -1.9204403844 0.2661094644
H -0.2890756689 -1.1217587163 1.3998270919
H -2.2560318755 2.5790558813 2.3440784458
H -4.3354024866 1.7429856455 1.2457553682
H 0.6565205144 1.4363882568 -0.0898986940
H 2.6047290342 0.8525390345 -1.5026230752
H 4.8482933691 -0.1863832397 1.9946658981
H 2.8693170143 0.3229516986 3.4192983967
H 4.7327825395 1.8909591908 -4.2963239207
H 5.9604346499 0.6398077509 -4.6785563127
H 4.2282932480 0.3127521655 -4.9845655417
H 8.2707792773 1.5635298586 -1.1828272055
H 7.8933578384 0.1981676606 -0.0835151737
H 8.9543831575 -0.0652949731 -1.4994182235
