47
CONF96
C 1.9448501666 2.4250639300 2.5234856824
C 0.6287634909 1.9130309457 1.9841745656
C -0.6573190336 2.6416873370 2.3026522185
C -0.0360113021 2.7843418565 0.9149163688
C -0.7204545234 2.1575703784 -0.2244327263
O -1.6208360603 1.3467796211 -0.1846276741
O -0.1702112310 2.5968687005 -1.4000163372
C -0.6606894606 1.9101534976 -2.5866825337
C -0.3727308928 2.8088027378 -3.7026763366
N -0.1546688320 3.4951443826 -4.6049361703
C 0.0173225537 0.5688913773 -2.7450009745
C -0.7231140547 -0.5963976582 -2.5552905623
C -0.0895667153 -1.8289041670 -2.6055671640
C 1.2812483369 -1.8780473219 -2.8534491466
C 2.0292154166 -0.7308455686 -3.0490398366
C 1.3886878255 0.5014878883 -2.9935242618
F 1.8824696247 -3.0833240690 -2.8967544689
O -0.8165835450 -2.9888159345 -2.4602768756
C -0.6431405933 -3.7118768701 -1.2863010276
C -0.0509288849 -3.1724506719 -0.1479313943
C 0.0501816871 -3.9632652253 0.9955367697
C -0.4346701891 -5.2681907936 1.0043012283
C -1.0288561379 -5.7871633728 -0.1461810971
C -1.1353193606 -5.0144387905 -1.2972278326
C -0.7002445966 3.8165496434 3.1756617106
C -1.6665401849 4.0855516720 4.0540853934
Cl -3.0608135331 3.0731691044 4.3171761911
Cl -1.6391625742 5.5119178144 5.0601297587
C 0.5618834228 0.4066611731 1.8751377008
H 2.0131299373 3.5144940816 2.5079476875
H 2.7674793051 2.0259791672 1.9213039332
H 2.0817212961 2.0817505938 3.5548835380
H -1.5349831177 2.0028889446 2.3206070749
H 0.4833660214 3.7093715323 0.6883142958
H -1.7469860528 1.7843894164 -2.5159211859
H -1.7866291579 -0.5596209356 -2.3451504808
H 3.0930558582 -0.8111719673 -3.2436269304
H 1.9647626810 1.4099969851 -3.1390530172
H 0.3210394541 -2.1535288835 -0.1446083873
H 0.5108983310 -3.5453633663 1.8854083175
H -0.3519029574 -5.8763893227 1.8987913727
H -1.4103766999 -6.8034437780 -0.1519728521
H -1.5922244575 -5.4053066241 -2.2004037180
H 0.1087072858 4.5383900323 3.1146045347
H 1.3279084417 0.0440282265 1.1799975897
H -0.4137438999 0.0570387293 1.5334595514
H 0.7620172032 -0.0334543374 2.8577076109
