24
CONF10
C -2.8441118966 -2.6182831570 0.7357719162
O -1.8128119557 -1.9751238953 -0.0701513827
P -1.3413070144 -0.4989746851 0.2986008558
S -0.7073759309 -0.1337271136 2.0947558280
O -2.5874308514 0.3518279009 -0.2283504828
C -2.6520771597 1.7889841691 -0.0096254428
O -0.2332134403 -0.2905945484 -0.8879161977
C 1.0798894469 0.0516251283 -0.6459777310
C 1.4432021114 1.3891759711 -0.6976538513
C 2.7715496065 1.7562304495 -0.5241781966
C 3.7411838625 0.7769156084 -0.2951073046
C 3.3790821210 -0.5642324220 -0.2434766002
C 2.0501156689 -0.9253613146 -0.4177905193
Cl 1.6013245150 -2.6049773200 -0.3526403934
Cl 5.4147251585 1.2001466399 -0.0721977594
Cl 3.1925631340 3.4432429354 -0.5933817393
H -2.5208937641 -2.6743955494 1.7783838760
H -2.9549918223 -3.6187692384 0.3198218170
H -3.7833139060 -2.0658216653 0.6522353895
H -3.6223160801 2.0995693292 -0.3956338663
H -2.5773892744 2.0096538681 1.0579642092
H -1.8497883547 2.2864190485 -0.5612266183
H 0.6817321675 2.1397948117 -0.8749295331
H 4.1316539549 -1.3233248504 -0.0672963627
