22
CONF595
C 2.4722849488 0.3445097164 -0.2703845362
C 1.0680498213 -0.2198274361 -0.4192945248
C 0.1274380429 0.3404846883 0.6575775447
C -1.2600658715 -0.3041296892 0.6665221319
C -2.0256691719 -0.1494383158 -0.6459874994
O -3.3331110894 -0.7203479792 -0.5342675008
O -2.0401140209 0.2568578492 1.7350865283
O -0.0684563606 1.7521190237 0.4551162433
O 1.1980920522 -1.6461435737 -0.2796202011
O 3.3397130907 -0.1336607706 -1.2995244939
H 2.8582827413 0.0751330605 0.7262536397
H 2.4513752787 1.4342580856 -0.3544181670
H 0.6852770221 0.0360901907 -1.4171880391
H 0.5771643266 0.1598619628 1.6449759130
H -1.1578737640 -1.3692526648 0.8997183524
H -2.0867501101 0.9143127904 -0.9202875510
H -1.5214528451 -0.6862813618 -1.4559367586
H -3.7115571909 -0.3599500103 0.2804247151
H -1.9518179117 1.2192101653 1.6538993422
H 0.5546514618 2.2331622476 1.0115911977
H 0.5521779162 -2.0785116177 -0.8507525169
H 3.2723618347 -1.0984563560 -1.2835037191
