47
CONF45
C -1.4012087409 -0.1378409727 -4.1653627490
C -2.5337303077 0.1987272706 -3.2238614209
C -3.8646273706 0.3856163696 -3.9195414283
C -2.5640098139 -0.3695417224 -1.8375117572
C -1.5400616771 -1.3148480154 -1.3599340629
C -1.4165695354 -1.7148562159 -0.0965923518
Br -0.1115547440 -2.9894471572 0.4408504842
Br -2.4814892556 -1.0146570260 1.3142501412
C -2.2925848000 1.1356237756 -2.0324530819
C -1.0131193376 1.8050245234 -1.7581721897
O -0.8850197088 3.0081118100 -1.6534867070
O 0.0346602022 0.9425362237 -1.6196918762
C 1.3053875129 1.5680638539 -1.3101447588
C 2.3120635727 0.5588395475 -1.6430677592
N 3.1284515711 -0.2260182054 -1.8683968750
C 1.4036634878 1.9666106551 0.1476031341
C 1.7586961957 3.2701387820 0.4852560544
C 1.8383940697 3.6288501340 1.8279642249
C 1.5749020919 2.6957089432 2.8238868961
C 1.2237423518 1.3949619824 2.4682968838
O 0.9027731980 0.5369983366 3.4990020153
C 1.2981409471 -0.7904241684 3.4466032434
C 2.4953815852 -1.1936840338 2.8598194784
C 2.8496436632 -2.5391133381 2.9108657080
C 2.0304978077 -3.4673467519 3.5504086612
C 0.8459576702 -3.0415167135 4.1478731266
C 0.4713358402 -1.7031868255 4.0953613350
C 1.1312877578 1.0187229043 1.1321916146
H -0.4351460201 -0.2281960216 -3.6678415341
H -1.3171488979 0.6396738729 -4.9316388935
H -1.6189204298 -1.0854180211 -4.6702304046
H -4.1336654174 -0.5314652664 -4.4549903199
H -3.8037904135 1.2010944684 -4.6478562641
H -4.6610969912 0.6145371811 -3.2063327801
H -3.5524953525 -0.5375217766 -1.4150696075
H -0.8487011611 -1.7466176761 -2.0779296989
H -3.1252736621 1.7898224042 -1.7955235060
H 1.4565262429 2.4432383229 -1.9519825907
H 1.9584642057 3.9982073951 -0.2939196567
H 2.1084779681 4.6432997763 2.1019802593
H 1.6346005760 2.9599990191 3.8742601276
H 3.1414611482 -0.4712082923 2.3728547437
H 3.7803284342 -2.8583914420 2.4520587035
H 2.3157181927 -4.5135631493 3.5860225892
H 0.2008243030 -3.7554485360 4.6503633025
H -0.4510633657 -1.3562699390 4.5491322258
H 0.8498961263 0.0049730381 0.8646264427
