36
CONF149
C 0.0504128853 -2.5893333516 -3.8437855471
C -0.1016777496 -1.0891406724 -3.9656923644
O -0.2765227852 -0.4839483369 -2.6424919989
C 0.8367255985 -0.2574845057 -1.9351775513
O 1.9674599528 -0.4350177749 -2.3320530855
C 0.4746546092 0.2563065856 -0.5427308830
S 0.4130858597 -1.2943145061 0.5040572005
P -1.0318642450 -0.7970274059 1.9895458092
S -2.2840696745 0.6086120502 1.4985714217
O -1.6170678426 -2.2459890464 2.3597692135
C -2.5928352141 -2.8656578490 1.4771066358
O -0.2191081180 -0.5974835245 3.3612088343
C 0.6051679302 0.5875054503 3.5272603455
C 1.4181887467 1.2913476296 -0.0047871523
C 2.7539859107 0.9970746291 0.2842826205
C 3.5917295152 1.9820059713 0.7938406654
C 3.1045868567 3.2687185597 1.0249259408
C 1.7760729090 3.5669461985 0.7377092675
C 0.9357715017 2.5819243385 0.2230416965
H -0.8118403456 -3.0246140708 -3.3310719730
H 0.1132372735 -3.0251214596 -4.8456726337
H 0.9608597553 -2.8505637811 -3.2980094212
H 0.7603111812 -0.6245227091 -4.4504082510
H -3.5007441019 -2.2587864827 1.4393617070
H -2.8031995292 -3.8393655662 1.9181640311
H -2.1726612876 -2.9879595779 0.4746015835
H -0.0005219770 1.4901633712 3.4075567159
H 1.4244275455 0.5801550960 2.8011995884
H 1.0001381262 0.5274104882 4.5407781156
H 3.1308830554 -0.0071271687 0.1224157970
H 4.6269708604 1.7446759059 1.0181455036
H 3.7593878240 4.0335471724 1.4305880487
H 1.3884006039 4.5647699878 0.9175714060
H -1.0137817977 -0.8158737136 -4.4988869875
H -0.5484338464 0.6401941743 -0.5657098775
H -0.1029893816 2.8120341838 0.0051597575
