44
CONF50
C -4.0395707992 -1.1622584496 -2.6784405862
S -3.2371629160 0.4443654215 -2.9085393408
O -4.0248715332 1.4754075999 -2.2117648358
O -2.9341647010 0.5872487995 -4.3418162431
C -1.6304030125 0.2496406254 -2.0518545418
C -1.5333550265 0.1080480110 -0.6609680786
C -0.2417730651 -0.0251394676 -0.1348969954
C 0.8998172474 0.0121912945 -0.9368806225
C 0.7490856720 0.1355495842 -2.3177398988
C -0.5121923634 0.2595604758 -2.8773463047
C 2.3021099972 -0.0851935290 -0.4121810164
O 3.0707185410 -0.9023588878 -0.8805892711
C 2.7345482396 0.9852278313 0.5865323717
C 3.7024348447 1.9317638713 -0.1735101146
O 3.3168993104 3.0199399179 -0.5263439512
C 5.0958653835 1.4019622989 -0.3864936888
C 5.6963007897 0.8785782824 0.9273073406
C 4.8010040360 -0.1883450330 1.5801833781
C 3.4326422966 0.3867603330 1.8249217714
O 2.9059316955 0.4652759695 2.9094648432
Cl -0.0313123645 -0.3231855558 1.5773217149
C -2.7248787920 0.0435147462 0.2545624855
O -2.9591561758 -1.3547932962 0.5297763039
C -3.6116410311 -1.6188828115 1.7481506339
C -5.1105814050 -1.3540380809 1.6882080880
F -5.3924323032 -0.0379644751 1.5461647022
F -5.6987399371 -1.7780827319 2.8293295883
F -5.6922405431 -2.0012397241 0.6550644292
H -3.4275228338 -1.9218346493 -3.1691416173
H -4.1549958948 -1.3755919941 -1.6137745098
H -5.0131342770 -1.0733161315 -3.1682447923
H 1.6345898268 0.1382255330 -2.9440979435
H -0.6416758171 0.3688964777 -3.9476385994
H 1.8791676761 1.5766158235 0.9123286991
H 5.0342910477 0.5713560877 -1.1019540997
H 5.7007647903 2.1999313319 -0.8225408407
H 5.8424938053 1.7122623306 1.6242507972
H 6.6815017432 0.4489619746 0.7261142403
H 5.2089454997 -0.5306632136 2.5333937666
H 4.7036712953 -1.0388698422 0.8942842537
H -2.5038793908 0.5772082802 1.1873417358
H -3.6012130353 0.5079008909 -0.2011887160
H -3.4784613891 -2.6838850738 1.9609754276
H -3.1974240307 -1.0307503480 2.5807473180
