43
CONF30
C -0.5551017180 -0.0332098960 2.6278254057
C -1.0291273431 1.0858851805 1.7029859776
C -1.0318695118 2.4344202759 2.4224682559
C -0.1508812220 1.1911834891 0.4356447646
C -0.1332567703 -0.0540668305 -0.4084853323
C 1.0478114699 -0.8050437106 -0.5840625815
C 0.9903584813 -1.9624145179 -1.3647771476
N -0.1137977167 -2.3905251679 -1.9684053856
C -1.2248578105 -1.6882005872 -1.8177953575
C -1.2930719956 -0.5256084926 -1.0414925550
C -2.6284257414 0.1331809171 -0.8699773964
O -3.5995597653 -0.4498770811 -0.4381089880
O -2.6172104738 1.4109368885 -1.2642175277
C -3.8813665149 2.1107195578 -1.1206883376
C -2.4550026086 -2.1966465922 -2.5568247492
F -2.1167932969 -3.1629313324 -3.4484627071
F -2.9980843099 -1.1458791711 -3.2753072915
C 2.1963973959 -2.8492324172 -1.6595370549
F 3.1826506447 -2.7252228754 -0.7481371116
F 1.8483657857 -4.1470189740 -1.6947395829
F 2.7223980031 -2.5363837738 -2.8685383821
C 2.3160302272 -0.3221624982 0.0158168606
N 2.6471513895 -0.4961979993 1.2270723561
C 3.8911404532 0.2028421583 1.5581473661
C 4.6925217862 0.4914787073 0.2755386617
S 3.4149786430 0.6262537317 -1.0442329285
H 0.4675155959 0.1571564680 2.9699741602
H -1.2064177950 -0.1052869290 3.5044692407
H -0.5577833339 -1.0047987466 2.1230838639
H -2.0606261910 0.8639003317 1.3988360743
H -1.4028797516 3.2339455422 1.7723162657
H -0.0173796296 2.6998969588 2.7426697563
H -1.6657803520 2.3957146171 3.3137448192
H 0.8679502513 1.4379108847 0.7446015763
H -0.5140836204 2.0212145378 -0.1785708988
H -4.6480801977 1.6180836899 -1.7225500237
H -4.1834904356 2.1205772516 -0.0706049853
H -3.6910488858 3.1201978260 -1.4815093060
H -3.2335086889 -2.5842491486 -1.8910415073
H 3.6180525097 1.1382477118 2.0686451752
H 4.4813865615 -0.3965426886 2.2583657891
H 5.3630826348 -0.3332365951 0.0178769506
H 5.2616938473 1.4209888125 0.3379841200
