47
CONF228
C -7.0399139477 -0.1907630187 2.6916843286
O -6.0458947747 -1.1768683339 2.2674604269
P -5.4768759871 -1.1645571175 0.7793776590
S -4.1494922969 -2.5465643256 0.4843118403
O -6.8140293293 -1.1792505444 -0.0933547468
C -6.7302512035 -1.1693372037 -1.5475022904
O -4.9744180218 0.3598401253 0.4838521668
C -3.6743364434 0.7761543700 0.7748594242
C -3.2596825664 0.9281823175 2.0905842663
C -1.9652069896 1.3740744960 2.3427194499
C -1.1130169687 1.6867640249 1.2822454573
C -1.5559969879 1.5494029671 -0.0367641665
C -2.8361103286 1.0771922446 -0.2921797935
S 0.5066403303 2.3455890397 1.6601286498
C 1.5633651656 1.4747827629 0.5088808118
C 2.5930612099 2.1870968235 -0.1085168072
C 3.4848135729 1.5331610267 -0.9542501934
C 3.3202833885 0.1756066673 -1.1837480108
C 2.2931257930 -0.5465896757 -0.5883113584
C 1.4183873254 0.1047013172 0.2710115016
O 4.1650012246 -0.4800895769 -2.0958885753
P 5.5851164219 -1.1003666622 -1.6254935277
S 6.4930905267 -1.9592995387 -3.1087554854
O 5.1288853844 -1.9964298204 -0.3848024261
C 6.1204245951 -2.7739930814 0.3459599106
O 6.3756388104 0.0756634242 -0.8757375476
C 7.2016756137 1.0115721852 -1.6247233723
H -7.1543409189 -0.3395492668 3.7646234786
H -7.9850914864 -0.3737952231 2.1771163811
H -6.6776052776 0.8199197887 2.4870635900
H -7.7606129669 -1.1834326656 -1.9005775648
H -6.2252158671 -0.2614355575 -1.8872210845
H -6.1971147092 -2.0582163536 -1.8944272775
H -3.9297015196 0.6885482103 2.9095819901
H -1.6216797186 1.4742735579 3.3670448294
H -0.9008847470 1.8016840124 -0.8639566193
H -3.1933794823 0.9527009744 -1.3089091717
H 2.6979809234 3.2536280809 0.0613260916
H 4.2824532797 2.0786914597 -1.4460500942
H 2.1905004205 -1.6074810125 -0.7882985399
H 0.6228932189 -0.4546328225 0.7519689872
H 6.8637021437 -2.1091054908 0.7929743060
H 5.5659103786 -3.2979681532 1.1235744412
H 6.5999781854 -3.4903392019 -0.3263117057
H 7.5580921774 1.7351999575 -0.8921620233
H 8.0413629348 0.4815209978 -2.0798739839
H 6.6084684135 1.5141140157 -2.3934876100
