70
CONF214
C -2.5426357198 -0.2192199316 -0.2572324057
C -3.9557693254 0.4037312144 -0.3469170960
C -4.9553201713 -0.6695589492 -0.6308291545
C -6.1866015273 -0.7084591612 -1.2386815613
N -6.6578502273 -2.0182859534 -1.2326409791
C -5.7295149908 -2.8388074900 -0.6330420259
C -5.6739449753 -4.2118102178 -0.3803846945
C -4.5232462265 -4.6839530735 0.2463644524
C -3.4513787097 -3.8412886649 0.6199514840
C -3.5100362734 -2.4730414129 0.3786745287
C -4.6610014770 -2.0031201968 -0.2505254716
C -2.4811433955 -1.4191620788 0.7359144328
C -1.0669077458 -1.9943574308 0.8077690817
C -0.0614451253 -0.9063440677 1.1590368527
C -0.1907261407 0.2382356132 0.1482858746
N -1.5507913975 0.7862954617 0.1743729278
C -1.5904572624 2.0652869660 -0.5660818305
C -1.2995299141 1.9701097681 -2.0395645886
C -0.2916861164 2.6017930914 -2.6383869707
C 1.3594539627 -1.4602501853 1.1790060179
O 1.6051610088 -2.6151814515 0.8319309903
N 2.3904747511 -0.6109595563 1.5266358490
C 3.7672792287 -1.1592775503 1.4633708925
C 4.3392504788 -1.3516563004 0.0533963124
C 5.0191670893 -0.1324055542 -0.5646983313
N 4.1338576286 1.0214306415 -0.7874754256
C 3.1037969759 0.7434438554 -1.7918645856
C 4.9212535216 2.1929210081 -1.1871367761
C 2.1706728778 0.6538728522 2.1953572712
O 1.3734495233 0.7622861331 3.1263331284
N 2.9468442565 1.6343284430 1.7144351572
C 2.8679666759 2.9902452839 2.2449374460
C 1.7318814665 3.7921911611 1.6131001409
H -2.2881075371 -0.6236601073 -1.2589441388
H -4.1725597174 0.9057869641 0.6075621732
H -3.9895840574 1.1678323531 -1.1286033229
H -6.7813071491 0.0782178485 -1.6823570311
H -7.5363218032 -2.3128291985 -1.6262735548
H -6.4784042107 -4.8850478257 -0.6588364754
H -4.4428029632 -5.7467310604 0.4550046259
H -2.5857212974 -4.2869927788 1.0990168740
H -2.7410465453 -1.0122171327 1.7270400685
H -1.0217712494 -2.7951748249 1.5514866842
H -0.8093370323 -2.4388265829 -0.1616859008
H -0.2898933347 -0.5043521352 2.1505581840
H 0.5032930379 1.0528421096 0.3846469251
H 0.0832421710 -0.1421361139 -0.8555291694
H -2.5716506589 2.5271033117 -0.4105108979
H -0.8546295154 2.7316323666 -0.0997577158
H -1.9637230894 1.3420264775 -2.6336028885
H 0.3880211570 3.2358783788 -2.0715570082
H -0.1151972181 2.5162287803 -3.7069598261
H 3.7431495587 -2.1296588927 1.9689403223
H 4.4096941689 -0.4936700083 2.0467085765
H 5.1089063373 -2.1296536302 0.1239222378
H 3.5665100330 -1.7584496209 -0.6046500384
H 5.4991041487 -0.4353491572 -1.5151256568
H 5.8212306602 0.2010885560 0.1069692517
H 2.4601321112 1.6218375999 -1.9025773547
H 2.4765149761 -0.0947597956 -1.4786425775
H 3.5428211869 0.5033777431 -2.7769285989
H 5.6522779317 2.4303703496 -0.4072271850
H 5.4637092503 2.0253266730 -2.1346708030
H 4.2572839238 3.0539322403 -1.3177565119
H 3.4093349993 1.4660740307 0.7916981498
H 2.7345946719 2.9320165741 3.3297472409
H 3.8299747389 3.4768809948 2.0510234736
H 1.8592901392 3.8504765380 0.5268485512
H 1.7155188902 4.8105555382 2.0139359857
H 0.7669290704 3.3209908639 1.8236771235
