47
CONF111
C -3.9529324994 -1.3278116810 0.3624478561
C -2.4560727939 -1.4969238465 0.4875913617
C -1.9135835602 -2.3791371951 1.5636612680
C -1.8439874053 -0.8637332501 1.7519649771
C -0.5264715958 -0.2220378991 1.7133356711
O 0.5030633372 -0.6836802997 1.2659863581
O -0.5994611672 1.0331743314 2.2627237969
C 0.6329993125 1.8045037139 2.1849082032
C 0.5882317861 2.7322463296 3.3129456999
N 0.5761153342 3.4788454936 4.1934132767
C 0.7327304583 2.5167383419 0.8549610183
C 1.6074322238 2.0144355604 -0.1040018261
C 1.6431128135 2.6092980729 -1.3626531884
C 0.8424459699 3.7086376463 -1.6579811646
C -0.0140888586 4.2095492660 -0.6818583648
C -0.0821393575 3.6146383665 0.5733827973
O 2.5122867679 2.1822364964 -2.3447407908
C 2.7878083147 0.8249463866 -2.4472228080
C 1.7772412712 -0.1312589141 -2.3733308544
C 2.1050856493 -1.4723779807 -2.5478550232
C 3.4217240661 -1.8528184577 -2.8045628165
C 4.4163987844 -0.8808089685 -2.8876267199
C 4.1056162154 0.4646713603 -2.7049225931
C -2.7847892972 -3.1784592171 2.4496651228
C -2.4310169983 -3.5351602548 3.6825787625
Cl -3.4331107329 -4.5173673661 4.7145429272
Cl -0.9212336059 -3.0514159098 4.4012829922
C -1.7131170075 -1.4216348689 -0.8254099118
H -4.1815816552 -0.3794587477 -0.1339815641
H -4.4507744230 -1.3336020769 1.3356466687
H -4.3697884111 -2.1392587014 -0.2447833848
H -0.9363966851 -2.8137397436 1.3563421182
H -2.5601471993 -0.4118884537 2.4294950658
H 1.4894005929 1.1349940838 2.3246452045
H 2.2402203600 1.1637678635 0.1214963003
H 0.8961783702 4.1578858333 -2.6439906902
H -0.6397853980 5.0663308927 -0.9091398037
H -0.7630600724 3.9999462904 1.3259883707
H 0.7523265828 0.1691485769 -2.1818643688
H 1.3215350850 -2.2217415969 -2.4909495660
H 3.6693052572 -2.9002471418 -2.9415848244
H 5.4438986187 -1.1674612991 -3.0886693567
H 4.8691769647 1.2335312019 -2.7601688194
H -3.7503664642 -3.5188617280 2.0859048093
H -0.6420884262 -1.5897643338 -0.7017298527
H -1.8622805546 -0.4427962924 -1.2945462894
H -2.1060584803 -2.1860791800 -1.5042893551
