47
CONF142
C -3.1126368803 0.5402344261 4.2693760781
C -3.5196467587 1.0509952359 2.9036002803
C -4.1652020729 0.0731626803 1.9783171185
C -2.6937213261 0.4806286509 1.7434212889
C -2.3544975483 1.2602675248 0.5508892075
O -3.0243763773 2.0993608225 -0.0151234420
O -1.1124682208 0.8901006600 0.0921954865
C -0.6638149848 1.5846522400 -1.0979251881
C -1.4892756698 1.1831536249 -2.2449388151
N -2.1082463236 0.8558985366 -3.1636947285
C 0.7870697438 1.2311027046 -1.3158070873
C 1.7615066237 2.2189493939 -1.1947068677
C 3.1010031388 1.8794845369 -1.3730453707
C 3.4713376276 0.5721006368 -1.6644480235
C 2.4818354591 -0.4067132689 -1.7722597864
C 1.1398222185 -0.0859277963 -1.6051162437
O 2.7617702831 -1.7098182394 -2.1214605645
C 3.9673704752 -2.2715640648 -1.7202083898
C 4.6767469527 -2.9976759821 -2.6695869838
C 5.8487182793 -3.6467144536 -2.2878136541
C 6.3056381925 -3.5620526198 -0.9745184223
C 5.5794001059 -2.8301216124 -0.0357155068
C 4.4021137248 -2.1835754819 -0.4001594080
C -5.2259242289 0.4723552473 1.0322733860
C -5.4698170995 -0.1615188500 -0.1117467079
Br -6.8827212072 0.3449714205 -1.2797715659
Br -4.4023247501 -1.6108942478 -0.7213556472
C -3.9454488993 2.4996196919 2.8961291469
H -2.2717431180 1.1240838441 4.6576798871
H -2.8191924466 -0.5124980261 4.2332530881
H -3.9513853654 0.6419426649 4.9664897851
H -4.2423298071 -0.9536565300 2.3323357068
H -1.9573753930 -0.2688233592 2.0105675806
H -0.7826046363 2.6650161192 -0.9622872632
H 1.4777950884 3.2407189231 -0.9652127268
H 3.8668178698 2.6437093833 -1.2909844319
H 4.5140504031 0.3132040870 -1.8119406483
H 0.3885280102 -0.8640862114 -1.6992289451
H 4.3078414340 -3.0493985199 -3.6886095049
H 6.4072451970 -4.2157291200 -3.0243595080
H 7.2208905189 -4.0659531435 -0.6819826845
H 5.9241430464 -2.7676752080 0.9916964848
H 3.8266060493 -1.6205459214 0.3274916672
H -5.8668648131 1.3133991420 1.2836500356
H -4.8064660041 2.6224286985 3.5622269457
H -4.2178879846 2.8568993183 1.9033647624
H -3.1322776319 3.1265031353 3.2760968910
