40
CONF1
C -3.5199920430 -3.7443348775 0.1952528096
C -2.9436868380 -2.3574013554 0.2271461643
C -1.7347087163 -2.1039973927 0.8877264384
C -1.1823070660 -0.8320421660 0.9137629407
C -1.8269176647 0.2332225328 0.2687128588
C -3.0408669666 -0.0090801193 -0.3825189450
C -3.5877364062 -1.2874944793 -0.3995576469
C -1.2895064076 1.5920496888 0.3074469837
C -1.9471604364 2.7864101193 0.5583098050
C -0.9326080343 3.7530117455 0.5740523340
N 0.2729962593 3.2358354270 0.3433836004
N 0.0411059787 1.9175377328 0.1771869419
C 1.1264916127 1.0742293024 -0.1859283999
C 2.3231650196 1.1742649353 0.5171439071
C 3.3903423720 0.3569727442 0.1636165499
C 3.2295307277 -0.5459421688 -0.8804544761
C 2.0376812302 -0.6407218309 -1.5959257764
C 0.9778788754 0.1821238282 -1.2487851206
S 4.6073135018 -1.5900222088 -1.3604186074
O 4.7277279994 -1.5919258696 -2.8300684190
O 5.7744377533 -1.1900219587 -0.5513219610
N 4.0241958050 -3.1197454166 -0.9509205384
C -1.0632100112 5.2193928836 0.8037405288
F -2.3403098591 5.5472226591 1.0984482022
F -0.2858578175 5.6524734697 1.8275031103
F -0.7025516115 5.9480523708 -0.2842537222
H -3.5686590094 -4.1704223193 1.2024706629
H -4.5244956418 -3.7463515482 -0.2338803759
H -2.8905973320 -4.4104517469 -0.4058015443
H -1.2248062570 -2.9165622431 1.3982551411
H -0.2553844390 -0.6605501605 1.4520614276
H -3.5505368695 0.8060694834 -0.8870470136
H -4.5289753953 -1.4575877154 -0.9146123861
H -3.0007814441 2.9151501350 0.7499174321
H 2.4140108154 1.8757201059 1.3381926413
H 4.3292506506 0.4157941471 0.7013203904
H 1.9390989710 -1.3369162355 -2.4215450662
H 0.0462693961 0.1385842181 -1.8008761462
H 4.1418006824 -3.2902732398 0.0472875950
H 4.5383588172 -3.8222729581 -1.4823171046
