47
CONF187
C -1.8153914324 4.1594896679 2.3602340882
C -2.5602335575 3.6432929611 1.1502183838
C -3.6642831895 2.6589659065 1.3466310820
C -2.3092871730 2.1584081469 0.8325653863
C -2.2489956097 1.6515754504 -0.5407100964
O -3.0000729715 1.9077215717 -1.4598734319
O -1.1913624607 0.7877707922 -0.6791574723
C -1.0257865140 0.2194088407 -2.0041602161
C -2.1250633882 -0.7159375969 -2.2748728422
N -2.9673670371 -1.4760288501 -2.4912887269
C 0.3136595323 -0.4739634637 -2.0424029203
C 1.3386937145 0.0580740550 -2.8214469405
C 2.5828489526 -0.5688054973 -2.8302313411
C 2.8099438634 -1.7111792973 -2.0718334853
C 1.7736695197 -2.2252761712 -1.2903653309
C 0.5241119524 -1.6168591139 -1.2728302828
O 1.8984172328 -3.3892613916 -0.5640132408
C 3.1316915351 -3.7117807240 -0.0119162912
C 3.8608904052 -2.7807220753 0.7234065585
C 5.0536908044 -3.1801244759 1.3188440370
C 5.5052996956 -4.4931477652 1.1899175980
C 4.7561890833 -5.4124446822 0.4588331464
C 3.5648693033 -5.0251831011 -0.1505401455
C -4.1275434550 2.2301674562 2.6816913242
C -4.6986826554 1.0472339957 2.9002139824
Cl -5.2902825938 0.5481491023 4.4601079668
Cl -4.9077535236 -0.1385739996 1.6428691685
C -2.6799393952 4.6449329464 0.0257258025
H -1.6967561827 3.3930982198 3.1307517134
H -2.3561121847 5.0073315844 2.7956601055
H -0.8198959275 4.5059430503 2.0654407545
H -4.4245317443 2.6552102611 0.5666833293
H -1.6776888317 1.6367459384 1.5431334292
H -1.0699716309 1.0156114132 -2.7547209596
H 1.1663856999 0.9495995897 -3.4152484093
H 3.3846140444 -0.1682786702 -3.4418468726
H 3.7765039910 -2.2025824774 -2.0898749671
H -0.2669004546 -2.0392857846 -0.6607688845
H 3.4985642557 -1.7631370670 0.8280759742
H 5.6273540844 -2.4607074780 1.8948244060
H 6.4346421640 -4.7977264031 1.6598085056
H 5.0997232762 -6.4368771228 0.3549217425
H 2.9703887482 -5.7264920378 -0.7267078353
H -4.0246798985 2.9040940252 3.5276370559
H -3.1834308863 5.5427334294 0.3999230207
H -3.2534500504 4.2517309299 -0.8147008810
H -1.6866885229 4.9370862293 -0.3315612030
