74
CONF160
C -0.3698043121 -1.0645796371 -0.2851143708
C 0.6413369206 -2.1422412713 -0.6476287840
O -0.0185374673 -3.3882261745 -0.2321038074
C -0.9584137896 -3.1335678768 0.7165105168
O -1.5694748529 -4.0273145854 1.2536490054
C -1.0048525650 -1.6458460691 0.9682792167
C -2.3315450998 -0.9589775586 1.3004283485
C -3.4641124842 -1.3238352530 0.3465960556
C -4.2419731810 -2.4502149177 0.6215389118
C -5.2670112100 -2.8326184206 -0.2456199999
O -6.0791454931 -3.9133124645 -0.0657338307
C -5.8304504232 -4.7311503751 1.0842524555
C -5.5237207109 -2.0782327071 -1.3964353921
O -6.5354367095 -2.4588452047 -2.2317693332
C -4.7497602649 -0.9429130830 -1.6574252947
O -5.1075425073 -0.2809796482 -2.8016207615
C -4.3694819318 0.9002674829 -3.1374150957
C -3.7255113337 -0.5609498101 -0.7938023607
C -2.0782280126 0.5430689161 1.3262614178
C -3.0345354441 1.3351942536 1.9956867901
C -2.8582185775 2.6955830140 1.9929334008
C -1.7844031433 3.2947503067 1.3395406525
O -1.8815360874 4.6600320676 1.4430995991
C -2.9169335638 4.8877544331 2.4215102015
O -3.6677257878 3.6597096071 2.5351557808
C -0.8471040130 2.5521365968 0.6698585339
C -0.9956677217 1.1465397653 0.6698574585
C 0.1027248008 0.3489786488 -0.0096875182
O 1.2529843801 0.3139206765 0.8854093049
C 2.4092972941 0.8971263815 0.3876049510
O 2.9839938644 0.0038243614 -0.5807351737
C 4.1814918928 0.5509088626 -1.1274633982
C 4.7031018109 -0.3556839131 -2.2296589056
O 5.9590832224 0.1669055457 -2.6828482624
C 6.9088955715 0.2518100127 -1.6264285364
C 8.1953001343 0.7937939713 -2.1885690282
O 6.4589096303 1.1392728866 -0.6024089409
C 5.2432772081 0.6536203640 -0.0313360294
C 4.7446639266 1.5949783746 1.0465633182
O 5.6455763533 1.7533015155 2.1431611791
C 3.3795294122 1.1033075845 1.5491899751
O 2.7999515102 2.0544882309 2.4341091841
H -1.1326241983 -1.0154992724 -1.0728839493
H 0.8524260417 -2.2297578551 -1.7140675612
H 1.5707499966 -2.0479006630 -0.0814496581
H -0.3166829099 -1.4829970670 1.8143714834
H -2.6394056500 -1.2698609373 2.3054340972
H -4.0340570378 -3.0301733036 1.5108031339
H -4.8169548666 -5.1486626694 1.0584913377
H -5.9718232162 -4.1621187000 2.0107016170
H -6.5620818099 -5.5380534067 1.0346583453
H -6.5676589604 -1.8215126628 -2.9608623459
H -3.3094298792 0.6670176631 -3.2909585346
H -4.8048078106 1.2678816988 -4.0668076542
H -4.4720056411 1.6601056818 -2.3539981547
H -3.1487654038 0.3348054107 -0.9884072112
H -3.8856301789 0.8759544488 2.4882380571
H -2.4544060333 5.1181778503 3.3908777970
H -3.5766648668 5.6848712707 2.0740694120
H -0.0182395757 3.0251454448 0.1538855900
H 0.4012054962 0.8468728862 -0.9400827774
H 2.1986165827 1.8650795576 -0.1035964561
H 3.9939850651 1.5561072035 -1.5402079422
H 4.0313472254 -0.3709770444 -3.0914290064
H 4.8248051135 -1.3802844151 -1.8432308042
H 7.0334063030 -0.7536419771 -1.1835015303
H 8.5676884635 0.1270812036 -2.9693612239
H 8.9431569811 0.8655242415 -1.3958704962
H 8.0242086421 1.7865676372 -2.6137856135
H 5.4084274001 -0.3525473842 0.3962044247
H 4.6266441005 2.5993983628 0.6196503122
H 5.8313444130 0.8766183467 2.5092374386
H 3.5133460712 0.1289464735 2.0506611738
H 3.4908881894 2.3060481924 3.0632980298
