37
CONF409
C -0.3825169559 -2.2564763131 -3.1234553529
C -1.8033879671 -2.4475109297 -2.6404232774
O -1.9230660474 -2.2775841670 -1.1885643854
P -1.8035553006 -0.8258069038 -0.5464926047
O -2.3127133667 0.3149320091 -1.3335303552
O -2.4776257983 -0.9825006982 0.8734618380
C -2.0172992434 -1.9741149724 1.8523288500
C -1.9899612174 -1.3095257422 3.2071130556
O -0.1948162720 -0.7527999722 -0.2474183854
P 0.6093392450 0.5938762460 0.1766650334
O 0.0155465189 1.3395338720 1.3096036693
O 2.0266412134 -0.0998988268 0.3798419836
C 3.1325041803 0.7298378983 0.8668192611
C 3.2131246899 0.6793206965 2.3756241342
O 0.7968342221 1.4237034125 -1.1713928904
C 0.0214342834 2.6509487675 -1.3997558842
C 0.8206323370 3.8541313629 -0.9581766719
H -0.3360686596 -2.5013741474 -4.1894399256
H 0.3047484647 -2.9146738659 -2.5847887851
H -0.0518627359 -1.2214543685 -2.9980709029
H -2.4934830310 -1.7486912252 -3.1234573369
H -2.1507380783 -3.4686188566 -2.8110683600
H -1.0251148673 -2.3376316586 1.5666120635
H -2.7258831663 -2.8065476307 1.8109156274
H -1.6839692029 -2.0402720258 3.9623959439
H -1.2794838209 -0.4787025337 3.2090369219
H -2.9804116768 -0.9297892345 3.4715099157
H 3.0083425770 1.7556770411 0.4994682700
H 4.0216797150 0.3026818884 0.3972718114
H 4.0831005668 1.2537879471 2.7100733678
H 2.3155609119 1.1090290942 2.8270839538
H 3.3261888310 -0.3524345605 2.7195322692
H -0.1687895201 2.6555856294 -2.4754027766
H -0.9344183270 2.5767739791 -0.8763094642
H 0.2616805328 4.7661887090 -1.1914060183
H 0.9951775413 3.8249263711 0.1212120035
H 1.7826302235 3.8954734070 -1.4774161997
