28
CONF7
O -1.6733827086 -0.0595042061 -3.5538112564
C -1.7613914068 0.6508355063 -2.3173771370
C -1.7948300572 -0.2681540113 -1.1191667323
O -0.5322196897 -0.9785645389 -1.0216185635
C -0.1752098140 -1.1632858635 0.3359036960
C -1.3056789431 -0.5783964333 1.1808188493
C -1.9485167239 0.4379354070 0.2317479883
O -3.2837086668 0.7979990129 0.5424478341
N 1.1326187162 -0.4775724121 0.5892847192
C 1.6151988160 0.5132156931 -0.2171005710
C 2.7883986425 1.1455710568 0.0209737681
C 3.5878076011 0.7809028317 1.1598744987
O 4.6678594132 1.2719732833 1.4833858490
N 3.0200909459 -0.2428294462 1.9346891233
C 1.8224188363 -0.8920735163 1.7247840913
O 1.3931716665 -1.7613141513 2.4742173726
H -0.8193533455 -0.5099266096 -3.5702919472
H -0.9350357607 1.3701042393 -2.2130205276
H -2.7016574582 1.2120126780 -2.3430379502
H -2.6025905358 -1.0074316142 -1.2409894941
H 0.0039133632 -2.2227472909 0.5339435320
H -0.9524661259 -0.1483109285 2.1189598613
H -2.0310378732 -1.3695302664 1.4036821023
H -1.3808016285 1.3769788258 0.2271112658
H -3.8107741523 -0.0116571784 0.5955556184
H 0.9980355603 0.7490813627 -1.0751455883
H 3.1442970899 1.9217049818 -0.6423399222
H 3.5348448212 -0.5370158137 2.7565195308
