70
CONF373
C -2.9586957091 -0.2827697659 -0.0844362397
C -4.2088230757 0.6285016811 -0.0069693706
C -5.2025336311 0.0431387854 0.9430599944
C -6.5686562164 0.1126225899 1.0748370515
N -6.9647183627 -0.6774960443 2.1498606831
C -5.8606961787 -1.2751125286 2.7132774261
C -5.6778176348 -2.1625937733 3.7771943336
C -4.3699199274 -2.5678666988 4.0331019024
C -3.2636214230 -2.1188798825 3.2750467593
C -3.4433850273 -1.2258459896 2.2241168348
C -4.7526507486 -0.8270210156 1.9663230474
C -2.3860989205 -0.6028333295 1.3355317669
C -1.1181208093 -1.4553077109 1.2667468665
C -0.0950847415 -0.8169078727 0.3334232373
C -0.7572479241 -0.5850791639 -1.0280166345
N -1.8825686210 0.3443708587 -0.8807706229
C -2.2772434912 0.8175463379 -2.2090431301
C -1.3302580889 1.8240379794 -2.8002951411
C -0.3223260105 2.4333907202 -2.1786416428
C 1.1199668355 -1.6947778792 0.1104605738
O 1.0013868445 -2.8222866613 -0.3703879716
N 2.3707277236 -1.1448911633 0.3096671744
C 3.5316269294 -1.8357367616 -0.2929291618
C 3.5516872394 -1.7796690652 -1.8231810872
C 3.3982151530 -0.3846286444 -2.4220890017
N 4.3548052598 0.6045459775 -1.9010003106
C 4.0355895047 1.9343847149 -2.4321701809
C 5.7435708217 0.2524166292 -2.2122144479
C 2.5679525157 -0.0481567982 1.2197707773
O 1.9338421451 0.0140577848 2.2763463219
N 3.4967795564 0.8320763607 0.8236377299
C 3.8375624748 1.9901758982 1.6423776826
C 2.8824225911 3.1605330448 1.4165336926
H -3.2680240514 -1.2471184170 -0.5406659582
H -3.8857444743 1.6287365773 0.3177554893
H -4.6666397454 0.7408427069 -0.9928229171
H -7.3083466815 0.6520721910 0.4992166738
H -7.9181542794 -0.7983893399 2.4508027323
H -6.5063928462 -2.5272407599 4.3759213554
H -4.1901581314 -3.2613687026 4.8494152425
H -2.2754576272 -2.4840096048 3.5355769641
H -2.1137714496 0.3721752046 1.7728309645
H -0.6904317828 -1.5672743909 2.2683973068
H -1.3689455738 -2.4576121003 0.8959300098
H 0.1951992957 0.1583493030 0.7277854369
H -0.0344432844 -0.1522851681 -1.7258096978
H -1.0894864060 -1.5538509905 -1.4459995906
H -2.4024440143 -0.0199100023 -2.9254401305
H -3.2552697623 1.3057491706 -2.1604684507
H -1.5410328488 2.0681967877 -3.8415538260
H -0.0784836743 2.2151007376 -1.1419975997
H 0.2877263744 3.1684174229 -2.6946926665
H 3.5111601404 -2.8828123172 0.0270089488
H 4.4319996378 -1.3818026245 0.1253510056
H 4.4848981129 -2.2480330334 -2.1556563356
H 2.7387674356 -2.3949121598 -2.2209610260
H 2.3922294605 -0.0062617224 -2.1965922902
H 3.4731355713 -0.4598009984 -3.5232360191
H 4.1211067493 1.9745588224 -3.5325199751
H 4.7181076063 2.6754127226 -2.0035640738
H 3.0101277741 2.2040777503 -2.1560543239
H 6.0194509930 -0.6887186281 -1.7292261592
H 5.9088912556 0.1495679288 -3.2996914338
H 6.4071540363 1.0354570699 -1.8331554977
H 3.8863625844 0.7628916452 -0.1406455247
H 3.8269853530 1.6893785328 2.6949261249
H 4.8618464309 2.2814413357 1.3866804224
H 2.9030447423 3.4794046574 0.3695412154
H 3.1715770925 4.0110237218 2.0418971829
H 1.8577854364 2.8746076821 1.6725482174
