47
CONF46
C 5.1519299024 -1.5932587129 2.4530769809
C 4.7443831400 -0.8510335154 1.2445101133
C 3.5310130538 -0.4832538460 0.7185857360
C 3.8714522180 0.2210985514 -0.4765634627
N 5.1710171528 0.2840650284 -0.6524037110
O 5.7243633284 -0.4141977760 0.4335142766
C 2.9707502531 0.8848937462 -1.4344646696
C 2.2055624094 1.9766152650 -1.0187176793
C 1.3166574297 2.6440693984 -1.8380570046
C 1.1762449704 2.1975055308 -3.1484035465
C 1.9067196285 1.1106888680 -3.6169711614
C 2.7908170011 0.4663753028 -2.7594518484
Cl 3.6597061562 -0.9333921543 -3.3476678014
F 2.3473394905 2.3855836931 0.2599823363
C 2.2195992363 -0.7473460859 1.3359935217
O 2.0986126192 -0.9243277161 2.5482764115
N 1.1618927767 -0.7808217652 0.4718826652
C -0.1905414921 -0.8721287747 0.9163455335
C -1.1748120459 0.3042377816 0.5890616513
N -1.9795371342 -0.6489049906 -0.1877159675
C -1.1679449719 -1.7422646715 0.0923493695
O -1.2544010887 -2.9089070418 -0.2085161910
C -3.4192587108 -0.5514419714 -0.1029756382
C -3.7361217592 -0.1301182679 1.3813529700
S -2.3046743675 0.9848665778 1.8721657703
C -3.7479001443 -1.3821031857 2.2586787088
C -5.0396737929 0.6456896675 1.5334171347
C -4.0112833532 0.4004082893 -1.1303172516
O -5.1176851422 0.2601645984 -1.6015713823
O -3.1855235585 1.4152919730 -1.4327723845
H 6.0893952333 -2.1237152222 2.2719294805
H 5.3000825819 -0.8979771145 3.2869856823
H 4.3687931835 -2.2963046968 2.7386582404
H 0.7547040692 3.4872592063 -1.4533451618
H 0.4847227004 2.7011477408 -3.8150641301
H 1.7882977280 0.7599728199 -4.6350063693
H 1.3302588143 -0.6900578003 -0.5202492086
H -0.2135145077 -1.1489686481 1.9740745590
H -0.7370592162 1.1194900247 0.0063490422
H -3.8624334118 -1.5339332674 -0.2924310360
H -2.8281957346 -1.9635216234 2.1510958215
H -4.5974807366 -2.0172009256 1.9825901140
H -3.8486793503 -1.0989146770 3.3093687009
H -5.1979989715 0.9010872532 2.5847771315
H -5.0406491309 1.5703844535 0.9504328057
H -5.8766315943 0.0201681401 1.2062664723
H -3.6323153542 1.9930300276 -2.0762564384
