47
CONF35
C -0.6471710371 3.4552419914 3.2274404948
C 0.0514077519 2.9011846994 2.0040291905
C 0.1804112825 1.4090184372 1.8265266600
C -0.8632385687 2.1930991698 1.0058293860
C -0.7769128747 2.2625937396 -0.4593053946
O -1.7351890977 2.3703057244 -1.1972613583
O 0.5019693134 2.1638869866 -0.9306865198
C 0.6097130986 2.0412641445 -2.3688578635
C 1.9973223377 2.3847493380 -2.6825821343
N 3.0876645758 2.6365810053 -2.9668610525
C 0.2721620928 0.6351199810 -2.8150275175
C 0.8177426663 -0.4448040163 -2.1217512674
C 0.4713089460 -1.7360607286 -2.4843250339
C -0.4061229475 -1.9319389482 -3.5499639943
C -0.9384873092 -0.8707971920 -4.2591898288
C -0.5987859353 0.4246818447 -3.8805967685
F -0.7426030241 -3.1941006036 -3.8800397435
O 1.0206353250 -2.8227320269 -1.8412043415
C 0.3522850762 -3.3216491301 -0.7308078310
C 0.9208334636 -4.4512286260 -0.1465824404
C 0.3237653726 -5.0033306050 0.9806206831
C -0.8300728929 -4.4362581110 1.5217567331
C -1.3839074331 -3.3090828799 0.9227356179
C -0.8006526958 -2.7414344023 -0.2092981181
C -0.2960975843 0.4454649004 2.8193865670
C 0.2776872498 -0.7290688756 3.0866600160
Cl 1.7023493523 -1.3280142854 2.2839173020
Cl -0.3430368027 -1.8076561192 4.3097833225
C 1.1999936772 3.7664485497 1.5346116222
H -1.5313550825 2.8799104344 3.5087496900
H -0.9629655085 4.4851079409 3.0320808344
H 0.0451907632 3.4667443850 4.0762078867
H 1.0462519537 1.1017539036 1.2496457585
H -1.8936379001 2.0960154445 1.3316163764
H -0.0477904102 2.7658225727 -2.8627671504
H 1.4931665944 -0.2978022513 -1.2840456729
H -1.6193606488 -1.0619067213 -5.0813463624
H -1.0251488806 1.2696439746 -4.4111958336
H 1.8198649073 -4.8796418534 -0.5773105053
H 0.7659209865 -5.8825989166 1.4387695787
H -1.2899092748 -4.8678433136 2.4043659400
H -2.2787597733 -2.8549332885 1.3370631144
H -1.2359438879 -1.8588050280 -0.6649636850
H -1.1835551357 0.6896664554 3.3952158467
H 1.7676031139 3.3091681486 0.7245300016
H 1.8785422215 3.9385012157 2.3767546842
H 0.8269129059 4.7397130305 1.1973031969
