44
CONF2
C -3.9599911038 -2.1158332535 -3.1406816105
S -3.2640937336 -2.6512161859 -1.5670015626
O -2.7725245847 -4.0339586110 -1.7335598766
O -4.2379142891 -2.3832735396 -0.4849074132
C -1.7951049189 -1.5838817501 -1.3474799134
C -1.8886230208 -0.2177205396 -1.0378377216
C -0.6727559333 0.4753221578 -0.9518876418
C 0.5613083684 -0.1494809952 -1.1177106584
C 0.6017117574 -1.5069477393 -1.4310684895
C -0.5767797934 -2.2250249243 -1.5509503950
C 1.8732986978 0.5643996107 -0.9777280862
O 2.6718246001 0.5719266944 -1.8926774511
C 2.1845785062 1.1113008140 0.4161213422
C 2.7955949901 2.5224469545 0.3725932110
O 2.1489065799 3.4630427222 0.7832272132
C 4.2094326510 2.6092530788 -0.1172361483
C 5.0988438587 1.6471232206 0.6886685777
C 4.5919278745 0.1985704598 0.6111117505
C 3.1658446960 0.1013301624 1.0652857060
O 2.7506327625 -0.6791763284 1.8940386910
Cl -0.6709758099 2.2077862832 -0.7036071483
C -3.1815960394 0.5223326599 -0.7666558443
O -3.2330788739 1.0265941480 0.5755948228
C -3.3533557893 0.0363386580 1.5856272455
C -2.2771168420 0.2697015724 2.6260521752
F -2.3219341410 1.5209217022 3.1383104845
F -1.0286452287 0.0931006868 2.1278135457
F -2.4263177045 -0.5978909903 3.6553525720
H -3.1989065355 -2.2581445595 -3.9109547616
H -4.8258350703 -2.7603045256 -3.3184644991
H -4.2631713809 -1.0693084086 -3.0689996913
H 1.5603019912 -1.9945468950 -1.5728032096
H -0.5530285480 -3.2797867703 -1.7952804167
H 1.2783159561 1.1306902591 1.0217767775
H 4.2256562819 2.3091573721 -1.1728401055
H 4.5518945629 3.6423802546 -0.0300957459
H 5.1355354420 1.9688433889 1.7353562007
H 6.1170935976 1.6885696715 0.2946598705
H 5.1986026493 -0.4768321365 1.2178844292
H 4.6335740924 -0.1357293492 -0.4345204638
H -3.2362967913 1.4075470810 -1.4056855682
H -4.0535959035 -0.1035321982 -0.9607588376
H -4.3271732506 0.1177518099 2.0849146836
H -3.2360635185 -0.9838412410 1.2054812475
