60
CONF832
C 6.7682229604 0.9894136184 0.9344327454
C 5.9608834845 0.5134181316 2.1439750243
N 5.5052817036 -0.8688261327 2.0311339660
C 6.3384267754 -1.9060297997 2.6428962535
C 5.9908547524 -2.1498229524 4.1087926969
C 4.3053428381 -1.2673783445 1.4828931223
O 3.9173613422 -2.4310328657 1.5400467404
N 3.5826857359 -0.2603870020 0.8553816914
C 2.3097204796 -0.3511156695 0.2717401260
C 1.7768086911 0.8119694504 -0.2762438808
C 0.5156295889 0.8600037035 -0.8746751957
C -0.2363727083 -0.3333645881 -0.9416892003
C 0.2957789400 -1.5018696740 -0.3927221440
C 1.5464319122 -1.5226758037 0.2103460999
O -1.4547064913 -0.2998946577 -1.5613057564
C -2.2112382520 -1.5206445558 -1.6364697486
C -3.4822913903 -1.2243612023 -2.4117266203
C -4.3016753047 -0.0655831068 -1.8291420644
N -4.4986953237 -0.2373557293 -0.3913674729
C -5.5686283420 0.5764529572 0.2363466165
C -6.9348260688 0.0538279604 -0.2195183542
C -5.4450223367 2.0745191868 -0.0874951922
C -5.4308347367 0.3672447498 1.7469641288
O -3.2053678427 -0.9887991601 -3.7924062973
C 0.0953938861 2.2070714150 -1.3818538175
O 0.9164323862 3.1093439485 -1.4506174623
C -1.3376125140 2.4738961268 -1.7714341849
H 7.6476330376 0.3553177120 0.7894544658
H 7.1080413215 2.0197483725 1.0796962505
H 6.1782416296 0.9491823966 0.0133305663
H 5.1088923781 1.1785924898 2.3359074096
H 6.5809453799 0.5803475480 3.0454996093
H 6.2091865121 -2.8277481062 2.0705333974
H 7.3845181726 -1.5920479445 2.5397919739
H 4.9589577351 -2.4998864296 4.1918118358
H 6.0995288887 -1.2356441917 4.7019526914
H 6.6514087398 -2.9108857846 4.5362981531
H 4.0105223882 0.6455185601 0.7686544878
H 2.3322874060 1.7456900120 -0.2498534567
H -0.2601567904 -2.4294072920 -0.4307459817
H -1.6350551826 -2.2870663667 -2.1708310668
H -2.4544207483 -1.8806992128 -0.6279689862
H -4.0865361387 -2.1388183353 -2.3789197815
H -3.8051053719 0.8814512015 -2.1044379649
H -5.2701622074 -0.0700076895 -2.3379766664
H -3.6264232525 -0.0045165215 0.0766068623
H -7.1027565295 0.2220161448 -1.2872823614
H -7.7330717235 0.5723522386 0.3202911387
H -7.0157182939 -1.0187907906 -0.0208960745
H -4.4709309195 2.4621879700 0.2332581536
H -6.2220242179 2.6486474411 0.4280773488
H -5.5517475877 2.2618056908 -1.1606734817
H -6.2107249660 0.9143065644 2.2846416596
H -4.4604716099 0.7302838715 2.1064930565
H -5.5132443284 -0.6953863840 1.9938302903
H -2.5978886430 -0.2399822153 -3.8381136375
H -1.5711349429 1.9622075271 -2.7103828569
H -1.4633329369 3.5493185823 -1.9025923185
H -2.0350107042 2.0885085406 -1.0229804866
H 1.9352255864 -2.4403716140 0.6271307491
