51
CONF7
C -0.5922100078 -2.1428431479 1.5673775438
C -0.9390650568 -0.7019425253 1.3317853117
C -2.1896515518 -0.3246290816 1.0277665160
C -2.6194902269 1.0764043814 0.8111860274
C -2.4786596008 1.7737801727 -0.5719813338
C -3.8419491800 1.4371336837 0.0318657123
C -4.7060988156 0.3587759857 -0.5798945932
C -4.6304322215 2.6425752808 0.5015816669
C -1.8676602169 1.0325073027 -1.6814835082
O -2.0280926455 -0.1415196907 -1.9639754124
O -1.0301498616 1.8512521423 -2.3775851170
C -0.2711367112 1.2310825633 -3.4649605133
C 0.9863850465 0.6155623579 -2.9627626367
C 1.1592260949 -0.6331074835 -2.2733288525
C 2.4891735868 -0.7621826076 -2.0161191288
O 3.1603567949 0.3343715054 -2.5079397779
C 2.2298579711 1.1589438504 -3.0736195905
C 3.3047810938 -1.7852422756 -1.3088050165
C 3.5280983938 -1.4688077102 0.1603334182
C 4.0810586275 -0.2471544154 0.5575841748
C 4.2691894487 0.0398704386 1.9064724816
C 3.9091165859 -0.8915559971 2.8798030832
C 3.3646516483 -2.1128421894 2.4925287337
C 3.1762487858 -2.3976865458 1.1410238056
C 0.2122333540 0.2552133834 1.4207797835
H 0.1518037529 -2.4795490628 0.8335323305
H -1.4708637025 -2.7895245923 1.4975687749
H -0.1321475267 -2.2774076809 2.5547894221
H -2.9548141729 -1.0946346103 0.9469813912
H -2.3661836889 1.7678145303 1.6134586574
H -2.1920170354 2.8191298468 -0.5303157126
H -4.1266687929 -0.4931103230 -0.9326540681
H -5.4314819116 0.0108236044 0.1644067504
H -5.2654313449 0.7680491232 -1.4283227578
H -3.9778871653 3.4007847089 0.9441695243
H -5.1729240481 3.0972160546 -0.3346629970
H -5.3632181135 2.3372560185 1.2571122698
H -0.0499627634 2.0565427749 -4.1436755083
H -0.9085562430 0.4995832750 -3.9671684113
H 0.3863495397 -1.3375869297 -2.0043548686
H 2.6036698258 2.0668733730 -3.5229041861
H 4.2722429904 -1.8826356115 -1.8172687598
H 2.7941293193 -2.7481794134 -1.3944501231
H 4.3622898614 0.4856014173 -0.1929730123
H 4.6980699595 0.9936594343 2.1990556478
H 4.0530645955 -0.6658912915 3.9318753022
H 3.0801744171 -2.8454472441 3.2419343989
H 2.7446286319 -3.3500319603 0.8451655805
H -0.0786952836 1.2871939054 1.2141275921
H 0.9924182059 -0.0349117315 0.7040364611
H 0.6762293521 0.2104226993 2.4146087135
