52
CONF149
C -0.9108947089 -2.4789928547 -0.9598721941
C -1.3171810873 -1.7530567560 0.2895785868
C -2.2069142209 -0.7467752958 0.3485697650
C -2.9540117166 -0.1818893674 -0.7845594617
C -2.9207459132 1.3552452468 -1.0854271160
C -4.1895595095 0.6601280005 -0.6262959211
C -4.7839010062 0.9274267156 0.7384104104
C -5.2410313301 0.5067712927 -1.7075948433
C -2.0686502242 2.1960672608 -0.2351876195
O -2.0417536753 2.2487862677 0.9794597202
O -1.2121127411 2.9199568913 -1.0165737849
C -0.1638201091 3.6129921946 -0.3014371991
C 0.8483935310 2.6575068791 0.2794634182
C 1.1063088200 1.4366198499 -0.3409399982
C 2.0467078477 0.5704611974 0.2065962585
C 2.7495398280 0.9032584148 1.3626148482
C 2.4969370663 2.1329694762 1.9631439213
C 1.5508859302 3.0066308340 1.4337043043
O 2.1792023310 -0.6575593039 -0.4147550465
C 3.4106435388 -1.2920262610 -0.4103409256
C 3.4172786790 -2.6609113302 -0.1634918763
C 4.6215608514 -3.3572881232 -0.2304232937
C 5.8062745670 -2.6898430655 -0.5328519727
C 5.7811677445 -1.3176267136 -0.7795505653
C 4.5842845344 -0.6101031593 -0.7249547025
C -0.6197136622 -2.2278794122 1.5334749477
H -1.1262063871 -3.5507385196 -0.8631622675
H -1.4011271765 -2.1101520488 -1.8619126312
H 0.1734142881 -2.3895530288 -1.1004895232
H -2.3862610007 -0.2970229312 1.3207427694
H -2.9156987995 -0.7563425431 -1.7048266689
H -2.8597471627 1.5976853426 -2.1412078564
H -5.4008362309 1.8319084185 0.6994186756
H -4.0331378562 1.0671670536 1.5135636456
H -5.4328101942 0.0898187690 1.0178647409
H -4.7879127354 0.3073887730 -2.6830960001
H -5.9096604736 -0.3258504142 -1.4622668950
H -5.8451840129 1.4175153627 -1.7864620363
H 0.2960652980 4.2550638991 -1.0584630648
H -0.5939183334 4.2401302723 0.4845120265
H 0.5701498052 1.1368394836 -1.2355178696
H 3.4700570503 0.2135152052 1.7878492551
H 3.0309360263 2.4005896274 2.8696146091
H 1.3469841252 3.9527079020 1.9262468150
H 2.4855796446 -3.1641283075 0.0737474135
H 4.6307791366 -4.4256885471 -0.0386553271
H 6.7432712047 -3.2348486045 -0.5796979263
H 6.6984958890 -0.7918610509 -1.0256670534
H 4.5574724857 0.4560852602 -0.9244872035
H -0.7849814833 -3.3018517924 1.6879770303
H -0.9599967228 -1.6900112924 2.4221815540
H 0.4653801294 -2.0892343470 1.4366986386
