63
CONF27
C 2.0350108296 -0.2433540045 1.9342714634
C 1.4746610134 -1.6171110737 1.5765622558
N 1.1271769687 -1.6684714487 0.1556859194
C 2.3300365029 -1.4941102965 -0.6620323497
C 2.9409757264 -0.1167620772 -0.4225182690
C 3.2544739256 0.0636140652 1.0636686583
N 3.8118326705 1.3850422606 1.3495105410
C 3.2087358983 2.6289357166 1.1791499187
C 1.9600148933 3.0152253508 0.7059447669
C 1.6733950080 4.3830122335 0.6662416054
C 2.6029470736 5.3361805723 1.0854370844
C 3.8595049755 4.9539708143 1.5618918604
C 4.1424927303 3.5988549118 1.6004376384
N 5.2717623909 2.9137160742 2.0091715234
C 5.0959027803 1.5487903473 1.8677751474
O 5.9026573770 0.6638237601 2.1420589520
C 0.3998030470 -2.8946126081 -0.1813950252
C -0.2664726790 -2.8361379083 -1.5611248677
C -1.0017235823 -1.5204653092 -1.8272908299
C -2.0287851476 -1.1462452608 -0.7407609528
C -2.5268372975 0.2706154606 -0.9750147974
C -1.8746778743 1.3329659162 -0.3411304832
C -2.2461167849 2.6547018001 -0.5720464159
C -3.2876580697 2.8928923379 -1.4520471021
C -3.9649560039 1.8740565904 -2.0993595714
C -3.5745944462 0.5597481945 -1.8523278918
F -3.6644440656 4.1793700838 -1.6856427827
C -3.1560420927 -2.1465738230 -0.5780473303
C -3.7071138864 -2.8479080398 -1.6544227867
C -4.7642006363 -3.7375573514 -1.4735991548
C -5.2592888007 -3.9167554408 -0.1944291854
C -4.7443304841 -3.2494424896 0.9036864476
C -3.6891858186 -2.3660023928 0.6965771214
F -6.2860389292 -4.7889743857 -0.0070840717
H 2.3220265013 -0.2181967708 2.9913745770
H 1.2540566677 0.5095226045 1.7791880737
H 0.5713890310 -1.8096230961 2.1671263196
H 2.2153248582 -2.4006431839 1.8406621489
H 3.0795042140 -2.2812424146 -0.4365133109
H 2.0657726976 -1.5907132168 -1.7196161619
H 2.2342089647 0.6481740812 -0.7613458149
H 3.8601822325 -0.0072885678 -1.0084331721
H 4.0510811528 -0.6412011341 1.3317448804
H 1.2227958547 2.2943283712 0.3754925711
H 0.7042432092 4.7042348719 0.2987870748
H 2.3493141979 6.3901702912 1.0419277395
H 4.5889216432 5.6868213597 1.8900526207
H 6.1196677605 3.3190151510 2.3719137480
H -0.3761207734 -3.0337249687 0.5823675333
H 1.0537937681 -3.7874342095 -0.1282883977
H 0.4735250730 -2.9919528132 -2.3547264731
H -0.9630529112 -3.6808451378 -1.6258335133
H -0.2746382767 -0.7028374242 -1.8772360676
H -1.4916044774 -1.5566146523 -2.8079048706
H -1.4875181029 -1.1196643168 0.2114594596
H -1.0598117421 1.1227156406 0.3471140510
H -1.7462410058 3.4812448293 -0.0781204085
H -4.7797553546 2.1064697339 -2.7767239477
H -4.1038574639 -0.2476923492 -2.3490688800
H -3.3122978938 -2.7106859065 -2.6557066813
H -5.1929622398 -4.2852442342 -2.3059500038
H -5.1566603762 -3.4231398392 1.8918071825
H -3.2702010238 -1.8339477850 1.5466535814
