47
CONF17
C -5.3547365176 -2.5978317915 3.0322546518
O -6.0054486312 -2.3219244392 1.7602347446
P -5.1250720928 -2.0301520619 0.4582823513
S -3.6198852094 -3.2074870754 0.1118388148
O -6.2541026021 -1.9197898994 -0.6675690994
C -6.7905461893 -3.1263797784 -1.2810110609
O -4.7655905322 -0.4636590940 0.6788466998
C -3.7513335305 0.1674152272 -0.0470525210
C -3.8880825806 0.3822537686 -1.4111956287
C -2.8681862229 1.0353948578 -2.0960982619
C -1.7408510537 1.4908888143 -1.4091629801
C -1.6330009807 1.2878851435 -0.0303114032
C -2.6344693382 0.6088894864 0.6508717194
S -0.5097568728 2.4044196823 -2.3306207933
C 1.0249692680 1.8490389619 -1.5993219419
C 1.2744716277 0.4941355843 -1.3611702803
C 2.4941362452 0.0964970839 -0.8310498360
C 3.4686206130 1.0538934905 -0.5750592582
C 3.2474986850 2.4005384588 -0.8288128933
C 2.0117250791 2.7988885289 -1.3302759556
O 4.7017416227 0.6098110740 -0.0972194650
P 5.2608507046 1.0384002496 1.3766984477
S 3.9240575107 1.1476500665 2.7730933403
O 6.0538854868 2.4071280080 1.1777059888
C 7.0775616591 2.5275742890 0.1415827803
O 6.4503921824 -0.0181147266 1.5244454239
C 6.1457052938 -1.4247494521 1.7402245001
H -6.1623514946 -2.7831574203 3.7396996120
H -4.7669708477 -1.7316183285 3.3484348073
H -4.7164812902 -3.4802502356 2.9417662457
H -5.9853661084 -3.6945677994 -1.7534114377
H -7.2994686749 -3.7354707299 -0.5292861316
H -7.5018716470 -2.7806563942 -2.0302650998
H -4.7694185597 0.0289482001 -1.9353451417
H -2.9526003035 1.1867074580 -3.1673249713
H -0.7651703472 1.6489107925 0.5111977087
H -2.5607278412 0.4292234445 1.7180943141
H 0.5145589418 -0.2490736967 -1.5784665783
H 2.7003398017 -0.9485619343 -0.6261159985
H 4.0203412541 3.1333377567 -0.6220599910
H 1.8182546975 3.8515660710 -1.5080728338
H 7.9346665370 1.8995560876 0.3924786675
H 6.6643927292 2.2455987826 -0.8304652059
H 7.3633523618 3.5787777037 0.1380275246
H 7.1098037677 -1.9228951539 1.8356827788
H 5.5642647394 -1.5426376320 2.6583309130
H 5.5958975805 -1.8243512380 0.8839987514
