80
CONF2
C -5.2229617263 -0.3370572125 -0.7376992547
C -6.2008887606 0.7497170824 -0.3054348048
C -7.5123643425 -0.0385976955 -0.1850516507
C -7.0851305665 -1.3670119388 0.4502019110
N -5.6788721949 -1.5106219287 0.0235357472
C -4.9375441187 -2.5719180350 0.3741074037
O -5.4028347104 -3.5292698110 1.0037137997
C -3.4434643735 -2.5767691446 0.0080805642
C -2.6221377810 -2.8209596582 1.2978687907
C -1.1867356025 -3.1979942136 1.0461122962
C -0.8712664617 -4.4524754569 0.5116852877
C 0.4505500640 -4.8108575298 0.2695503006
C 1.4829052825 -3.9209730630 0.5690531472
C 1.1801061353 -2.6777693489 1.1173429213
C -0.1464749496 -2.3196445892 1.3529905728
N -3.0457823379 -1.3726476551 -0.7117154554
C -2.1083893988 -1.2953336272 -1.6758361322
O -1.3767245034 -2.1792499362 -2.0971245371
C -2.1650201001 0.1429479474 -2.2329281486
C -2.5190653475 0.1211781579 -3.7094670117
N -0.9131853866 0.8467936502 -2.0515445486
C -0.3149795582 1.0528903608 -0.8504511934
O -0.8168818974 0.6763993721 0.2176897849
C 1.0198804174 1.7570653152 -0.8839760127
C 0.9813992481 3.0161432801 0.0091037161
N 2.2645197208 3.7135681118 0.0681762374
C 2.5906599262 4.3956698956 -1.1896086773
C 3.3145621189 2.8206825163 0.5854953759
C 4.6483237475 3.5733809482 0.7701556331
C 5.6439893397 2.6351084239 1.3723892265
C 6.7554908993 2.7672522917 2.1678106801
N 7.3033791872 1.5086343251 2.4011392837
C 6.5471409402 0.5516783425 1.7648981058
C 6.6302170390 -0.8405004314 1.6781841050
C 5.6418292964 -1.4801295855 0.9336227280
C 4.5946915121 -0.7818801827 0.2907608412
C 4.5128964508 0.6048412363 0.3709432991
C 5.5041881703 1.2451278989 1.1153778673
C 3.4625292416 1.5065701029 -0.2472747794
C 2.1056844147 0.8053804292 -0.3609533045
O -3.2227756329 0.7699285954 -1.4883497871
C -3.7392969284 -0.1044483170 -0.4887556217
O -3.5279423778 0.4010378695 0.7821632948
H -5.3247072104 -0.5316331782 -1.8149755361
H -6.2519566190 1.5658141143 -1.0287967808
H -5.9014976721 1.1500826568 0.6675808618
H -7.9332016802 -0.2163241149 -1.1799586966
H -8.2615971469 0.4769528543 0.4186967045
H -7.6801410280 -2.2194772542 0.1101587126
H -7.1260656002 -1.3334614562 1.5455131749
H -3.2887652171 -3.4234714029 -0.6730774704
H -3.1268865373 -3.6351226310 1.8261736445
H -2.6787752985 -1.9262155221 1.9248576584
H -1.6710042172 -5.1519780925 0.2794345741
H 0.6779488079 -5.7874343145 -0.1475582525
H 2.5161312333 -4.1992512937 0.3837903260
H 1.9788516460 -1.9845617253 1.3638645332
H -0.3767983307 -1.3446813710 1.7704894719
H -1.7320838230 -0.3826738120 -4.2767190532
H -3.4602397244 -0.4152172721 -3.8469920735
H -2.6336042769 1.1466140055 -4.0723019262
H -0.4673325834 1.2168481547 -2.8784334142
H 1.2566056222 2.0489259344 -1.9136213895
H 0.7070331163 2.7037204813 1.0251886865
H 0.2146718725 3.7125691475 -0.3498913878
H 2.8964213813 3.7270417129 -2.0115370553
H 1.7065779113 4.9490266567 -1.5218237197
H 3.3930365179 5.1212771335 -1.0303625846
H 2.9777317246 2.5104662926 1.5883777828
H 4.4820204682 4.4627248197 1.3880246179
H 5.0118587035 3.9188537907 -0.2064584283
H 7.2169019979 3.6456708148 2.5977035433
H 8.1207974015 1.3352446476 2.9632203428
H 7.4192753694 -1.4036955062 2.1662833788
H 5.6732374736 -2.5623139788 0.8456252836
H 3.8575297449 -1.3518823620 -0.2662661141
H 3.8024543444 1.7845842138 -1.2573014263
H 1.8082145413 0.4451193155 0.6327017591
H 2.1807111739 -0.0686374092 -1.0174632524
H -2.5575785830 0.5406099250 0.8360810038
