38
CONF33
C 3.0770706417 0.6874316196 -3.0309950262
N 1.8162664221 0.0176013783 -2.7009542951
C 1.8073288926 -1.3241163512 -3.2897311316
C 1.6585957707 -0.0358551398 -1.2427547805
C 0.2935943989 -0.5585514519 -0.8008882168
C 0.0799114720 -0.3863949557 0.7117339433
C -1.1817501772 -1.0991084789 1.1695147541
C -2.4407673795 -0.6997262470 0.7108850019
C -3.5970344144 -1.3575285735 1.1163670454
C -3.4830291684 -2.4269857915 1.9971579229
Cl -4.9429030137 -3.2684560776 2.5190479915
C -2.2505446121 -2.8479006989 2.4761536995
C -1.1054161619 -2.1749112977 2.0551932728
C 0.0503549436 1.0557918464 1.1930013149
C -0.4186112794 2.1094904423 0.4052483113
C -0.4623396753 3.3906785687 0.9423887275
C -0.0347993599 3.5882197492 2.2504137981
C 0.4216703121 2.4842067243 2.9620958710
N 0.4674530676 1.2454016320 2.4564501951
H 3.9589725979 0.1486627391 -2.6332969122
H 3.1841086758 0.7588443975 -4.1183588855
H 3.0792252207 1.7005671572 -2.6152722024
H 2.5927422992 -1.9756508316 -2.8590367082
H 1.9800806694 -1.2477913071 -4.3679799311
H 0.8383467913 -1.8077590411 -3.1383051387
H 1.7940749321 0.9847918882 -0.8629935997
H 2.4514296159 -0.6581919407 -0.7772980391
H 0.2033942772 -1.6278480406 -1.0188728990
H -0.4992110090 -0.0558561738 -1.3675798522
H 0.9219159794 -0.8611124416 1.2286170479
H -2.5311397483 0.1397666551 0.0276968889
H -4.5691019363 -1.0417796271 0.7544535500
H -2.1798893490 -3.6831496814 3.1638525762
H -0.1370786936 -2.4995968990 2.4249430179
H -0.7413580285 1.9353639865 -0.6152608336
H -0.8226916256 4.2223695798 0.3449126406
H -0.0490984474 4.5706861044 2.7095750737
H 0.7702266017 2.5983968757 3.9874109207
