51
CONF90
C -0.1227256557 -1.9221529933 2.0975351036
N 0.0699960444 -2.2805122966 0.6860325064
C 0.3951687252 -3.7095199454 0.5425853501
C -0.7711801005 -4.6441640710 0.8880510135
C -2.0063923956 -4.2868507895 0.0565002346
C -2.3298286872 -2.7910518369 0.1475279277
C -1.0837452121 -1.9585396278 -0.1881374258
C -1.3475764178 -0.4527336374 -0.2444994502
C -0.3872092387 0.2530444285 -1.2150506073
N -0.2648784027 1.6770493040 -0.9147799771
C -0.2542409726 2.6214621379 -1.9611057684
C 0.0681453920 2.2832941155 -3.2800227073
C 0.0125076196 3.2387869249 -4.2909258064
C -0.3199706838 4.5562844950 -4.0007985896
C -0.5882820782 4.9189689718 -2.6840527521
C -0.5723625708 3.9606208274 -1.6769120973
S -1.0223859680 4.3980825507 -0.0128154295
C 0.1041980406 3.3182969275 0.8360633270
C 0.3457696639 2.0452335329 0.3016606157
C 1.1841368536 1.1658737169 0.9937332796
C 1.7623442396 1.5446587012 2.2063417352
C 1.5172703379 2.8167807916 2.7306057230
C 0.7012871242 3.6986686674 2.0335079182
S 2.7947952099 0.4497694572 3.1540962813
C 3.3729028451 -0.7408153704 1.8939680173
H 0.7287320517 -2.2998215469 2.6729727599
H -1.0366598682 -2.3271881046 2.5607632832
H -0.1324288075 -0.8367882617 2.2258417792
H 1.2675880815 -3.9323155168 1.1695976588
H 0.6963842686 -3.8791041030 -0.5015075102
H -0.4743750253 -5.6838618384 0.7052467309
H -1.0041754060 -4.5690464675 1.9574648970
H -2.8683020916 -4.8879321310 0.3673790880
H -1.8100078715 -4.5378267946 -0.9959243851
H -3.1332233250 -2.5368143214 -0.5541760397
H -2.6981288156 -2.5349438852 1.1489140600
H -0.7686146092 -2.2704876864 -1.1995482740
H -1.2736927509 -0.0078647365 0.7510588558
H -2.3748669396 -0.2722531918 -0.5789299454
H 0.5891724456 -0.2564683231 -1.2203606110
H -0.7957092103 0.1643682727 -2.2237889536
H 0.3746947511 1.2726936957 -3.5228794631
H 0.2514132975 2.9475005977 -5.3084826958
H -0.3551567480 5.3030817219 -4.7862889260
H -0.8273075285 5.9472480176 -2.4321732189
H 1.3616016691 0.1754080010 0.5963317048
H 1.9776419304 3.1232663490 3.6637677489
H 0.5207194080 4.6947107390 2.4249733086
H 3.8619070501 -0.2145398711 1.0697410473
H 4.1045722738 -1.3761029111 2.3992256892
H 2.5604768562 -1.3654526854 1.5116734018
