47
CONF92
C -5.8663124405 -3.9940172568 0.2700311978
O -6.5550197855 -2.7065503610 0.3173154892
P -5.7427067377 -1.3698724895 0.6337557656
S -6.8904528757 0.1886413693 0.7013450331
O -4.8328938078 -1.6594781694 1.9252768106
C -5.4190296483 -1.5811407217 3.2546218142
O -4.6028401546 -1.4165691213 -0.5183970060
C -3.6907741397 -0.3643245284 -0.6733750423
C -2.5132510765 -0.3647332596 0.0637049260
C -1.5917206361 0.6568897480 -0.1319657142
C -1.8447268899 1.6545794722 -1.0770922034
C -3.0285251040 1.6310378808 -1.8191394699
C -3.9626971504 0.6222817509 -1.6102637590
S -0.7366278273 3.0353500136 -1.3309658692
C 0.8763128155 2.3048982257 -1.0808853991
C 1.7824089856 2.9571534173 -0.2436400701
C 3.0713529356 2.4561963325 -0.0833685139
C 3.4259967801 1.2886621943 -0.7446882457
C 2.5331550320 0.6231278455 -1.5769486730
C 1.2594986089 1.1434784731 -1.7585971825
O 4.7150889521 0.7686569362 -0.6326036248
P 5.2963720285 0.2029235044 0.7859011192
S 4.0176558882 -0.7475719528 1.8858941708
O 5.9461416830 1.4503506679 1.5362606441
C 6.9137743485 2.3055059944 0.8522394139
O 6.5863205859 -0.5726923777 0.2503657293
C 6.4285384828 -1.8091256307 -0.5007422615
H -5.1957696435 -4.0247640911 -0.5915980141
H -6.6529746717 -4.7402685537 0.1646350958
H -5.3098222018 -4.1592766590 1.1957756753
H -6.2325658103 -2.3054735767 3.3531592342
H -4.6121510709 -1.8260396267 3.9448663753
H -5.7866043351 -0.5689757894 3.4408810840
H -2.3255631255 -1.1499160698 0.7873423020
H -0.6762760264 0.6700829794 0.4497698533
H -3.2217673121 2.3962230117 -2.5640839024
H -4.8855537106 0.5893867152 -2.1785264798
H 1.4842235678 3.8549662577 0.2873134051
H 3.7828822838 2.9605127292 0.5619366764
H 2.8446743124 -0.2846004067 -2.0825219760
H 0.5606093623 0.6404284383 -2.4186972005
H 7.0782298698 3.1493538507 1.5213205671
H 7.8443326971 1.7571213829 0.6933269256
H 6.5041317782 2.6535296781 -0.0996887184
H 7.4395380591 -2.1474768471 -0.7248413193
H 5.9060804757 -2.5509008099 0.1089567559
H 5.8793055691 -1.6175704009 -1.4263194014
