47
CONF166
C -4.7523603579 -2.5626663256 2.8857135026
O -4.8250339097 -1.1690985791 2.4654049701
P -5.2020119440 -0.8068660205 0.9563281256
S -4.2793270824 -1.7685850777 -0.4578736248
O -6.7960995037 -0.8995262915 0.9942892042
C -7.5660528718 -0.7436029385 -0.2321938338
O -4.9896036222 0.8021706867 0.9696291061
C -3.7674572824 1.3835817818 0.6229797587
C -3.7073072158 2.1173255525 -0.5515677807
C -2.5092261851 2.7329763868 -0.9027568754
C -1.3959467213 2.6197083856 -0.0690748241
C -1.4816952789 1.8928965607 1.1222255848
C -2.6688483598 1.2610869338 1.4674691031
S 0.1042313871 3.4866618186 -0.5127999837
C 1.3428007870 2.1979140007 -0.4350017880
C 1.0623760598 0.8698733436 -0.7673490794
C 2.0756160291 -0.0803566662 -0.7422671955
C 3.3645224600 0.3081290411 -0.4013286270
C 3.6633631351 1.6247243042 -0.0775703277
C 2.6437201583 2.5710784258 -0.0872625848
O 4.3514342621 -0.6790083828 -0.3385649398
P 5.5750352318 -0.7331174404 -1.4161951549
S 5.0965943380 -0.2794363589 -3.2397813923
O 6.1396457192 -2.1944568033 -1.1077485647
C 5.3628387944 -3.3673659421 -1.4847772524
O 6.7299463548 0.2030892604 -0.8424312747
C 7.2209446799 0.0245797253 0.5239422246
H -4.0048001142 -3.0926489819 2.2905005405
H -5.7317408816 -3.0370773893 2.7832671825
H -4.4541272975 -2.5349356723 3.9330658631
H -8.6095866409 -0.8447445889 0.0638361318
H -7.3893879416 0.2456484585 -0.6631301858
H -7.2935428297 -1.5260347212 -0.9445168983
H -4.5815583000 2.1885951405 -1.1895974250
H -2.4411923985 3.2909689154 -1.8305851165
H -0.6213092417 1.8169172143 1.7789456264
H -2.7483108269 0.6932414842 2.3882364186
H 0.0575439664 0.5728705924 -1.0477523172
H 1.8745227919 -1.1154827484 -0.9973252658
H 4.6739478194 1.9070955298 0.1982564713
H 2.8641410388 3.5986129977 0.1839531105
H 5.9626003263 -4.2253845805 -1.1836369039
H 4.4064275415 -3.3689644117 -0.9555594973
H 5.2037962767 -3.3757507991 -2.5661967869
H 7.8743839788 0.8760512038 0.7097735917
H 6.3856247606 0.0293584542 1.2288356762
H 7.7804678150 -0.9100452723 0.5952393152
