38
CONF39
C -6.4456396915 0.1244048088 1.8877651882
C -5.1168959200 0.4720256577 1.2313262110
C -5.0254095846 -0.2174292407 -0.1300525521
O -4.5144216806 -1.2971033205 -0.3267055594
O -5.6337822329 0.5251445355 -1.0646098181
C -5.6931107062 -0.0619190076 -2.3923000562
O -4.0895954021 -0.0041683216 2.0975880212
C -2.7913495350 0.3187477406 1.8053061274
C -1.8355243965 -0.2220514328 2.6720254426
C -0.4892827877 0.0432899602 2.4767886724
C -0.1082295001 0.8459073479 1.4098711527
C -1.0385968822 1.3936341473 0.5471172153
C -2.3946776715 1.1319495687 0.7416704722
O 1.2486067340 1.1779057098 1.2472816029
C 2.0362288926 0.3123920816 0.5746551210
C 3.4028375960 0.6373427626 0.4606859866
C 4.2354806113 -0.2221493856 -0.2201376461
C 3.6858960279 -1.3848543908 -0.7700893428
C 2.3296576697 -1.6245085780 -0.6141077886
N 1.5244659954 -0.7860313947 0.0485050816
C 4.5710105669 -2.3259559562 -1.5226564782
F 5.0358217641 -1.7736074300 -2.6755378901
F 3.9367230209 -3.4688768365 -1.8601704504
F 5.6677954038 -2.6719027999 -0.8000758995
Cl 4.0235610582 2.1014045194 1.1721462793
H -7.2712306370 0.4761079675 1.2648535458
H -6.5059470103 0.6116552092 2.8637152760
H -6.5299661864 -0.9578437664 2.0191497367
H -5.0354196985 1.5578925241 1.0965759647
H -6.2366031487 -1.0087086254 -2.3574313589
H -6.2224627683 0.6658775233 -3.0050908454
H -4.6818158483 -0.2254204959 -2.7711303797
H -2.1645549338 -0.8476973992 3.4948103603
H -0.7121348177 2.0193831202 -0.2766449594
H -3.1107050293 1.5711130993 0.0573006989
H 5.2919878229 0.0028947344 -0.3205584364
H 1.8650837675 -2.5142990804 -1.0286813573
H 0.2619328369 -0.3708664125 3.1409468317
