41
CONF774
C -3.9132313353 -0.1617165887 -3.1722791880
C -2.8626936731 -1.2613039660 -3.3826812411
C -3.5382659410 -2.6079877600 -3.6294263783
N -1.9130068754 -1.4186830311 -2.2734398867
C -1.0734449314 -0.2573583678 -2.0087962151
C -0.1546229622 -0.5474588787 -0.8339101709
O -0.9863195727 -0.7497789514 0.3090891307
C 0.8057655072 0.6028761999 -0.5848743906
O 1.6169025792 0.1946199746 0.5222635641
C 2.2753053189 1.1443667094 1.2481727414
C 2.5009567219 2.4450584351 0.8013047533
C 3.1879772513 3.3413373270 1.6180325274
C 3.6482366836 2.9453880681 2.8665222004
C 3.4209143484 1.6391625681 3.2962997386
C 2.7383220936 0.7210287467 2.5059084603
C 2.4703855981 -0.6834852674 2.9701967883
C 1.0496112494 -0.9660572698 3.3860594596
C 0.0544541326 -0.0842271823 3.4361104520
H -4.5182490115 -0.3815030327 -2.2843847938
H -3.4568515761 0.8229379796 -3.0375194591
H -4.5875767902 -0.0986975969 -4.0328886922
H -2.2655210071 -1.0055099878 -4.2713055485
H -2.7921362011 -3.3849029008 -3.8145671955
H -4.2171151967 -2.5545290386 -4.4859426823
H -4.1291824402 -2.9038431229 -2.7540337738
H -2.4207870801 -1.6458765243 -1.4224439721
H -0.4616494486 -0.0579594567 -2.9000817511
H -1.6356971375 0.6671329343 -1.7774383878
H 0.4260403211 -1.4591834122 -1.0486612634
H -0.4122185537 -0.8179910690 1.0875854374
H 0.2427076276 1.5091578365 -0.3219786500
H 1.4315838035 0.7984190022 -1.4680204475
H 2.1572052667 2.7611266352 -0.1764541417
H 3.3624399426 4.3530669559 1.2661083503
H 4.1820433086 3.6432793090 3.5021804798
H 3.7752820268 1.3225807544 4.2735750688
H 2.7405968446 -1.3964497435 2.1795243014
H 3.1291406613 -0.9152832035 3.8176076970
H 0.8576039153 -1.9996411076 3.6748268384
H 0.2039298296 0.9564072798 3.1600398888
H -0.9388348057 -0.3778788595 3.7597203408
