40
CONF73
C 3.8107793858 -2.6332448547 1.5815396955
C 2.9075697549 -1.4425683353 1.3413477661
O 3.4677604048 -0.5607205732 0.3193183713
C 3.2328959846 -0.9219384059 -0.9512479137
O 2.6289280051 -1.9077014175 -1.3006301939
C 3.7703456517 0.1339662722 -1.9114366762
C 2.6284538907 0.6568930301 -2.7872878708
C 1.6061692905 1.3330701528 -1.9105209137
C 0.5400044862 0.5964140391 -1.3945482979
C -0.3768098493 1.1502563166 -0.5070725878
C -0.2221233217 2.4836120062 -0.1316461986
C 0.8017596855 3.2594137092 -0.6432605849
C 1.7106706552 2.6714737814 -1.5142782254
Cl 3.0292627127 3.6648525174 -2.1037323521
F -1.0518499228 3.0212069640 0.7712503514
N -1.4136471166 0.3675291904 0.0296689375
C -2.7632418706 0.6847327349 0.0236058368
O -3.3381117892 1.6776643011 -0.3631696356
N -3.3298888387 -0.4904461018 0.5745554070
C -2.3157758228 -1.4104029505 0.8063514931
N -1.1595752817 -0.9199530668 0.4792785768
C -2.5242266417 -2.7672705957 1.3609383122
C -4.7270640421 -0.6297420025 0.7712321512
F -5.0002381310 -0.9117582537 2.0815619295
F -5.2132691580 -1.6826828297 0.0446463083
Cl 5.0565918333 -0.6362561925 -2.9400372608
H 3.4052243546 -3.2359977506 2.4002469205
H 4.8165467936 -2.3071771901 1.8602531680
H 3.8721896024 -3.2609881480 0.6898107748
H 2.8349484624 -0.8029790199 2.2236675762
H 1.9052821057 -1.7435860531 1.0231141800
H 3.0363035347 1.3466833038 -3.5289236899
H 2.1770662537 -0.1920255161 -3.3071974705
H 0.4301196624 -0.4474018583 -1.6692023828
H 0.8985543745 4.2925388771 -0.3338604384
H -1.5581005743 -3.2703288054 1.4121652802
H -3.2022335873 -3.3478160689 0.7283546753
H -2.9620294889 -2.7176865509 2.3625376100
H -5.2306711481 0.2956107359 0.4716279689
H 4.2536209428 0.9419043671 -1.3597165398
