45
CONF56
C -4.1589301269 2.3354826437 1.7124832534
O -4.1926677178 1.5896930537 0.4782961145
C -2.9685513723 1.2654915019 0.0109859680
O -1.9163945690 1.5405657519 0.5517431627
N -3.0525698401 0.5124321281 -1.1467812428
C -1.9068590154 0.2243171596 -1.9470351349
C -1.8064228919 0.7947534409 -3.2153617873
C -0.7196967391 0.4937162288 -4.0232462703
C 0.2659467344 -0.3730059878 -3.5601597125
C 0.1562763459 -0.9446130955 -2.2986067118
C -0.9335407999 -0.6664214251 -1.4742032630
C -1.0943205506 -1.3106064639 -0.1235632113
O -0.2483727527 -2.4640506257 0.0458445804
C 0.9728952878 -2.2325141719 0.5620180927
N 1.4231796017 -1.0226700284 0.8566298322
N 2.6759348857 -1.2350678813 1.3449129660
C 2.9971269085 -2.5623894471 1.3452137898
C 1.9176734226 -3.2473673066 0.8423449082
C 3.4537251787 -0.1360235527 1.7586394920
C 4.7341996645 -0.3246435089 2.2844596258
C 5.4913429140 0.7667965718 2.6878301526
C 4.9655367480 2.0468621041 2.5662091923
C 3.6925423998 2.2464918745 2.0464171441
C 2.9349991055 1.1565828300 1.6417984220
Cl 5.9223204496 3.4252648302 3.0748426305
O -4.2595652040 0.5961445280 -1.8641840788
C -4.9320673098 -0.6703935512 -1.8052295525
H -3.6069894117 3.2693699482 1.5804726820
H -5.2030930661 2.5364073590 1.9514722733
H -3.6869067004 1.7470322172 2.5036244695
H -2.5875917862 1.4647485297 -3.5550216239
H -0.6397091017 0.9414313118 -5.0082609782
H 1.1207090178 -0.6104741417 -4.1848672141
H 0.9170978161 -1.6339554951 -1.9522078526
H -2.1172929083 -1.6861516309 -0.0132324480
H -0.9007022999 -0.5840737468 0.6720048411
H 3.9491938578 -2.9271999205 1.6951384469
H 1.8117662814 -4.3102895859 0.6998130504
H 5.1571152216 -1.3161738817 2.3885328733
H 6.4845277934 0.6206359796 3.0955970911
H 3.2917363187 3.2492538130 1.9559540244
H 1.9422085675 1.2976925914 1.2343062489
H -4.3076144955 -1.4642708294 -2.2342782869
H -5.2049099310 -0.9147122910 -0.7721643754
H -5.8332858248 -0.5432370348 -2.4091819809
