33
CONF204
C 3.6764476981 0.7779956670 -1.3191815009
C 5.0384563953 1.4847646815 -1.2764502945
O 5.2879122638 2.1508296707 -0.0462762682
C 3.6695510083 -0.5291968663 -0.5627351713
C 2.3419751510 -1.3537159207 -0.6250060794
C 1.0536940991 -0.5719469133 -0.1990160335
C -0.1589984875 -1.4923024442 0.1541730340
C -1.5816837116 -0.8093174734 0.2044823753
C -1.7438614081 0.4174719947 1.1599943181
C -3.2392323697 0.7737373125 1.4692201945
C -3.4361137566 2.2142684618 2.0477085187
F -2.5803777865 2.4337741280 3.0557610101
F -3.2472034926 3.1399114123 1.1014749202
F -4.6881930694 2.3249371869 2.5096855670
F -3.7162148608 -0.1017674082 2.3782022055
F -3.9749037558 0.6852401762 0.3378395858
F -1.1268411131 0.1540092458 2.3322672150
F -1.1527206198 1.4906070673 0.5810523951
F -2.4339991928 -1.7790048538 0.6198402101
F -1.9223686188 -0.4396630482 -1.0468532601
F -0.2559009516 -2.4515659374 -0.7986536653
F 0.0664772619 -2.0813517596 1.3453488880
F 0.7003839090 0.2436423469 -1.2250660551
F 1.3340004463 0.1926650870 0.8835124236
F 2.1763573120 -1.7685622460 -1.9058921879
F 2.4768909866 -2.4411497693 0.1699181585
F 4.6283424722 -1.3706083969 -1.0636872084
F 3.9782222458 -0.3408683962 0.7621542495
H 2.9168175845 1.4442304432 -0.9008158642
H 3.4032617713 0.5547252493 -2.3564950717
H 5.0342991633 2.2670035854 -2.0406803783
H 5.8421895090 0.7786700574 -1.5283414655
H 5.3904553510 1.4878009450 0.6450303561
