51
CONF68
O 4.5910809879 1.6220767831 1.4770199824
C 3.3854107572 1.0623571501 0.9234993128
C 2.6391941169 2.2386612417 0.2839104832
C 1.4082488384 1.8345475939 -0.5289195421
C 0.3328664861 1.1235387291 0.2779524933
C -0.9125936127 0.5880301292 -0.5044330986
N -1.7407201126 1.4146343574 0.4065819084
C -0.6666562298 1.9658313845 1.0721902172
O -0.6003308667 2.8160839845 1.9417148862
C -3.1230748325 1.5957583839 0.4581105715
C -3.7084210229 2.3363956922 1.4944335477
C -5.0874752094 2.5037028401 1.5315482500
C -5.8578842086 1.9220320101 0.5382924911
F -7.2076445860 2.0836707168 0.5793424932
C -5.3071700575 1.1823144860 -0.4935616113
C -3.9266238261 1.0210873683 -0.5336675224
C -1.1392310045 -0.8922020345 -0.4604250746
C -0.8863894162 -1.6660896900 -1.5956060815
C -0.9887328439 -3.0513215520 -1.5575195428
C -1.3611949069 -3.6816788114 -0.3696300729
O -1.4518594198 -5.0442908837 -0.3816172256
C -1.6312241087 -2.9215727436 0.7714050149
C -1.5137912179 -1.5378226163 0.7203992515
C 3.6814444001 -0.0401997296 -0.0703939187
C 4.5740502448 0.1780970283 -1.1245263891
C 4.8112801116 -0.8077400838 -2.0761535837
C 4.1351103429 -2.0119402115 -1.9542976530
F 4.3555853779 -2.9774418013 -2.8861228906
C 3.2500723075 -2.2738298432 -0.9242563307
C 3.0345021716 -1.2735901081 0.0222960470
H 5.0612554952 0.9087606035 1.9278825942
H 2.7781675683 0.6387469485 1.7364455911
H 2.3625039332 2.9423242591 1.0776636213
H 3.3426931697 2.7565721467 -0.3794089070
H 0.9767189846 2.7243286805 -1.0023075707
H 1.7178209897 1.1631291209 -1.3397039995
H 0.7494384103 0.3297856855 0.9054679860
H -0.9447365333 0.9621189174 -1.5348146721
H -3.0865164963 2.7765864911 2.2638498353
H -5.5594622050 3.0743832053 2.3239573266
H -5.9445469470 0.7432528160 -1.2532036234
H -3.4767289626 0.4472498655 -1.3364827358
H -0.5995076860 -1.1782934366 -2.5236036197
H -0.7877405166 -3.6507346394 -2.4396410339
H -1.7163612737 -5.3586452872 0.4936308060
H -1.9291652175 -3.4148914567 1.6929473625
H -1.7181622802 -0.9548928170 1.6145575395
H 5.0894963181 1.1302814009 -1.2041450823
H 5.5005505025 -0.6516488422 -2.8991716019
H 2.7491334094 -3.2340652457 -0.8624364414
H 2.3473204705 -1.4634484930 0.8426563013
