23
CONF6
C -2.6721387470 0.6475638771 -1.0909341854
N -2.3935313105 0.6587505215 0.3328789552
C -1.2060867788 0.3456151354 0.8768121650
N -0.8857860799 0.2346810546 2.1701162360
N -1.8659633030 0.3905889611 3.1219819919
O -3.0408330651 0.7122603393 2.8261349089
O -1.5049374080 0.2045089216 4.2717079751
N -0.1749647501 0.0770402815 0.0206084937
C 1.1875897283 -0.1520364987 0.5120472537
C 2.0728212070 -0.5499348230 -0.6178524725
C 3.1960627530 0.0771578031 -1.0758537231
N 3.8486445691 -0.5089274786 -2.1325662977
C 3.2297827865 -1.5821414160 -2.4919070180
S 1.7912741877 -1.9873518391 -1.5750599085
Cl 3.7277011362 -2.5946984330 -3.7942480373
H -2.1508167411 1.4558977031 -1.6230494751
H -3.7431262625 0.8004337279 -1.2316878870
H -2.4004893048 -0.3127421162 -1.5473457313
H -3.1195187941 0.8192381761 1.0266021848
H -0.2403454762 0.4482505601 -0.9145617959
H 1.1450651323 -0.9239972774 1.2859582107
H 1.6052760540 0.7472743899 0.9851151697
H 3.5943201547 0.9925689216 -0.6519734160
