47
CONF380
C -4.3593271336 -3.3699304916 -0.5174909540
C -3.5334749633 -2.1345377249 -0.8685132543
C -3.6459609782 -1.0315181195 0.1841907162
C -2.8415005512 0.2147421600 -0.1856263674
C -2.7285865612 1.2598406321 0.9324884655
C -4.1039991028 1.8008764866 1.3537842525
C -4.0733778790 2.8331459593 2.4828008210
C -1.8264509901 2.4144135252 0.5027620028
O -0.5064747135 1.9295931514 0.1627659772
C -0.1645735588 1.9129661753 -1.1550840832
O -0.8710531794 2.3393595906 -2.0478964400
C 1.1559214992 1.3217864249 -1.3905604239
C 1.9363387731 0.7944762307 -0.4285715284
C 3.2401359436 0.1799060152 -0.5960200174
C 3.8865327369 0.0534632308 -1.8414330195
C 5.1242153999 -0.5424922590 -1.9470402624
C 5.7695073506 -1.0395599560 -0.8045680534
C 5.1530843483 -0.9266423531 0.4431031611
C 3.9046980905 -0.3223798037 0.5301110861
O 6.9832993304 -1.6091091800 -1.0201836047
C 7.6780419879 -2.1373695239 0.1079643525
H -4.0388412910 -3.7956457255 0.4397307654
H -5.4220083714 -3.1192588312 -0.4288385236
H -4.2620616880 -4.1490063974 -1.2796908204
H -2.4784571095 -2.4145096924 -0.9852897687
H -3.8533951330 -1.7377673405 -1.8408533110
H -3.2978871177 -1.4194898971 1.1528730194
H -4.7057962616 -0.7792627153 0.3162746191
H -3.2739332259 0.6879172453 -1.0780389101
H -1.8299862086 -0.1018454704 -0.4692457894
H -2.2656348429 0.7793926973 1.8088074891
H -4.6033137286 2.2257770691 0.4717665030
H -4.7196811237 0.9544288338 1.6754651058
H -3.4907291976 2.4644577065 3.3347001605
H -5.0858921157 3.0440370284 2.8396806674
H -3.6383566441 3.7855389194 2.1662942744
H -2.2519156650 2.9415617428 -0.3577852418
H -1.6676426779 3.1193357467 1.3227318572
H 1.4465512731 1.3338286994 -2.4353473307
H 1.5601785056 0.8224386754 0.5915188772
H 3.4094265386 0.4286809497 -2.7402443309
H 5.6217531425 -0.6403429332 -2.9057424195
H 5.6275029355 -1.2997120434 1.3420061837
H 3.4289024389 -0.2372423960 1.5031054008
H 7.9013264421 -1.3513169146 0.8404192972
H 8.6108152111 -2.5450215698 -0.2828088997
H 7.1020783827 -2.9380036687 0.5889065848
