47
CONF118
C -7.0309273847 -1.3917161383 1.8929382106
O -6.5820685977 -1.2819349037 0.5115543970
P -5.0325240986 -1.0691758133 0.1921074086
S -3.7470056368 -2.3444514780 0.8837273934
O -5.0239262323 -0.9985843601 -1.3994954639
C -5.9201338658 -0.0837463320 -2.1070926401
O -4.8511905871 0.4623703702 0.7287289235
C -3.5918154854 1.0247004393 0.9375133458
C -2.7488108129 1.2861207969 -0.1384053114
C -1.5236282060 1.8948852709 0.0977524679
C -1.1419172525 2.2167150272 1.4035732458
C -2.0001794090 1.9480461598 2.4706683272
C -3.2374127883 1.3548433225 2.2367471148
S 0.4058665050 3.0515774823 1.7314480573
C 1.5974023027 2.0076746823 0.8993948592
C 2.7211665223 2.6205708613 0.3388796684
C 3.7134184418 1.8472742967 -0.2542688271
C 3.5583149542 0.4696814156 -0.3023551595
C 2.4415195690 -0.1553828607 0.2398474634
C 1.4638118956 0.6174721689 0.8545231932
O 4.5331939695 -0.2817700291 -0.9638319706
P 5.5863002519 -1.2238367940 -0.1484811754
S 6.2025603878 -0.5112669503 1.5461478645
O 6.6545632964 -1.4943843451 -1.3045146594
C 7.5144479209 -0.4123891925 -1.7640821172
O 4.8940629690 -2.6505077029 0.0104483629
C 4.3462825994 -3.3442275325 -1.1552783347
H -8.1083595786 -1.5428595417 1.8394443033
H -6.8038739688 -0.4700290697 2.4348078843
H -6.5506881329 -2.2483391014 2.3729031136
H -5.5939818071 -0.1059597578 -3.1461314333
H -6.9492902414 -0.4372485357 -2.0210064729
H -5.8238557779 0.9271884435 -1.7030496398
H -3.0537873655 1.0324218870 -1.1483317933
H -0.8639459063 2.1163846829 -0.7346945685
H -1.7016530907 2.1905982943 3.4850828087
H -3.9147645002 1.1323259675 3.0541950842
H 2.8237409476 3.7007275340 0.3625325084
H 4.5933878318 2.3073187406 -0.6909549538
H 2.3395765360 -1.2344859302 0.1904278560
H 0.5974287408 0.1339487330 1.2928683009
H 8.1451311706 -0.8478132271 -2.5381841505
H 6.9083926379 0.3967718633 -2.1796727572
H 8.1269681719 -0.0472570436 -0.9356397443
H 5.1595614476 -3.6689661099 -1.8070453071
H 3.8113269473 -4.2043200958 -0.7545218895
H 3.6573136141 -2.6889653778 -1.6941777864
