49
CONF5
C -4.4479816409 -0.5159728867 0.1907834079
C -3.2160550271 -1.3653346449 0.4231494689
C -1.8661868117 -0.6923854985 0.7430175499
C -2.1221735460 -1.4173715994 -0.6007066215
C -1.3277520109 -2.6929111809 -0.8091053941
C -2.2264625512 -0.6174267271 -1.8816740737
C -1.6808373005 0.7547951255 0.8108446449
O -2.2240336586 1.6315568714 0.1712534841
O -0.7147828501 1.0460488871 1.7578857380
C -0.3047239954 2.4313722074 1.7784312898
C 0.3399059607 2.6316929753 3.0764342709
N 0.8680777596 2.8240731252 4.0852650240
C 0.6486083921 2.7397295786 0.6401009599
C 1.7058339413 1.8636261156 0.3977084416
C 2.5587056875 2.1191582134 -0.6709771514
C 2.3808405873 3.2483030193 -1.4723099328
C 1.3331257526 4.1184800046 -1.2023141620
C 0.4534071771 3.8672459439 -0.1505850033
O 3.6423774259 1.3257184893 -0.9709889838
C 3.6732727250 0.0178679300 -0.4982924499
C 2.6723395537 -0.8888614690 -0.8377310277
C 2.7836360967 -2.2055239968 -0.4011558248
C 3.8832699735 -2.6099341026 0.3549615418
C 4.8781776361 -1.6903400638 0.6766274349
C 4.7760693980 -0.3667425583 0.2533969220
C -3.5332169593 -2.5939285382 1.2540771914
H -4.2411276747 0.4187039663 -0.3262304678
H -4.9148385194 -0.2730032563 1.1514856630
H -5.1731892092 -1.0896183351 -0.3977181010
H -1.2368947007 -1.2381335587 1.4382966103
H -1.0771187837 -3.2028444038 0.1219279399
H -1.8946774610 -3.3861514299 -1.4415304655
H -0.3906406243 -2.4590107658 -1.3253347541
H -1.2234847793 -0.3714094025 -2.2485352090
H -2.7826237629 0.3108424316 -1.7734125343
H -2.7188876490 -1.2324450768 -2.6437981916
H -1.1803216979 3.0886929842 1.7227527144
H 1.8506621050 0.9920602903 1.0264357482
H 3.0637612207 3.4266131961 -2.2961288389
H 1.1900144788 4.9923422189 -1.8294949184
H -0.3816451112 4.5320803163 0.0440226340
H 1.8231828536 -0.5649446442 -1.4315927718
H 2.0101758106 -2.9209579867 -0.6616159896
H 3.9639693700 -3.6391500251 0.6888089802
H 5.7376072825 -1.9987144553 1.2634682038
H 5.5383636592 0.3658006462 0.4971656203
H -4.2241086333 -3.2441121628 0.7047756317
H -2.6475639242 -3.1755976354 1.5118189303
H -4.0240549860 -2.2939771476 2.1860063522
