44
CONF34
C 2.2631726156 -1.8142680628 -5.1245345952
C 2.0697991014 -1.5249741324 -3.6752013258
N 1.1452042783 -2.2294929363 -3.0169731131
C 1.0057839268 -1.8960474865 -1.7224368618
N 1.7034515992 -0.9606206046 -1.0796224795
C 2.5940369236 -0.3166198452 -1.8468159925
N 2.8250703208 -0.5501270338 -3.1361933253
O 3.2730085113 0.6211320755 -1.1989523500
C 4.2586167233 1.3784974883 -1.9490171112
N 0.0434655557 -2.6102497259 -1.0395896430
C -0.4301476460 -2.4919064666 0.2697366990
O -1.3889755317 -3.1510090204 0.6405168072
N 0.2631720674 -1.6135818009 1.0705458150
S -0.3219522737 -1.1117159244 2.5923509626
O -0.3980827929 -2.2768381332 3.4781136721
O 0.5727688993 0.0019005701 2.9410810612
C -1.9842831290 -0.5070538101 2.2819213554
C -3.0183523941 -1.2137993870 2.8947791979
C -4.3292916733 -0.7898489744 2.7245266847
C -4.5926739923 0.3248322448 1.9336471580
C -3.5503947553 1.0104516272 1.3212459277
C -2.2163723110 0.6208758167 1.4783670386
C -1.1495067451 1.4505173538 0.8091150076
C -0.7772142782 2.6619013507 1.6774854154
C 0.3153010490 3.4836783862 1.0528524671
F -0.0263861016 3.9571598449 -0.1749477396
F 0.6308667557 4.5634545582 1.8129549034
F 1.4653587847 2.7766584807 0.8849699603
H 1.9326131221 -2.8247763489 -5.3664757781
H 1.6580908336 -1.1072895387 -5.7057207724
H 3.3067033750 -1.6679777202 -5.4090130594
H 4.6793687783 2.0745265579 -1.2249930095
H 5.0302297189 0.7114087163 -2.3383938878
H 3.7766172838 1.9166375075 -2.7676823857
H -0.4605511943 -3.2920111417 -1.5931104336
H 1.0039475620 -1.0468447094 0.6282968308
H -2.7934262224 -2.0875233765 3.4941032175
H -5.1374644105 -1.3341062800 3.2008808508
H -5.6144820443 0.6596872226 1.7872907007
H -3.7649734561 1.8753477689 0.6998235221
H -1.5455490459 1.8027228810 -0.1479288326
H -0.2537094847 0.8679719317 0.5940402768
H -1.6412627543 3.3186411660 1.8177906844
H -0.4215965386 2.3406788949 2.6601102603
