35
CONF19
C 3.8444867297 -0.8544777745 -0.5559143699
C 3.1991151295 -0.3242290893 0.7001520613
O 1.7556510083 -0.2928109987 0.4572997840
C 1.0012033595 0.1323757179 1.4665907502
O 1.4164136561 0.4746961149 2.5537543124
C -0.5014865056 0.1858967679 1.1055805301
C -0.7878020297 1.4282344410 0.2567685516
C -2.1103603351 1.6445278600 -0.1409727444
C -2.4630055557 2.7722709556 -0.8675312063
C -1.4738296815 3.6947758711 -1.1963410884
C -0.1551309918 3.5108559065 -0.8087899411
C 0.1798079972 2.3713028694 -0.0793088580
Cl -1.9077306650 5.1228087232 -2.1215929967
C -0.9135351996 -1.1003245926 0.3986214508
C -0.7822898769 -1.2291884714 -0.9848908982
C -1.1138564736 -2.4169372348 -1.6245000907
C -1.5824310765 -3.4810729803 -0.8623941132
C -1.7212346955 -3.3797253270 0.5151298547
C -1.3805745771 -2.1840779790 1.1408147554
Cl -2.0127168908 -4.9852868146 -1.6629068741
O -1.2288280294 0.2762729356 2.3236179198
H 3.6352676775 -0.2029822598 -1.4086834708
H 4.9278515075 -0.8993816324 -0.4127515360
H 3.4834034492 -1.8609930275 -0.7833382989
H 3.3830625383 -0.9648208899 1.5674787824
H 3.5261971128 0.6921102748 0.9419780948
H -2.8736005623 0.9197563719 0.1242591781
H -3.4893169736 2.9353393399 -1.1756348529
H 0.6013116366 4.2420356688 -1.0690126779
H 1.2148848457 2.2397393811 0.2194005664
H -0.4180949672 -0.3944753571 -1.5743506272
H -1.0144193761 -2.5133553494 -2.6994274983
H -2.0909430252 -4.2190938837 1.0927857352
H -1.4882102261 -2.0913192529 2.2148008366
H -0.6592588277 0.7515532021 2.9493094715
