54
CONF145
C 4.5841576023 0.3173030776 -1.9241389022
C 3.0548569651 0.2708358337 -1.7961068639
C 2.5929150304 -1.0627317809 -1.2910567447
C 2.4674680893 -1.3651182644 0.0526033704
C 1.9681970836 -2.6293512695 0.4349536929
N 1.7341105732 -3.5581328285 -0.5054670317
C 1.9427523329 -3.1921609048 -1.7690212002
N 2.3257102455 -2.0048265251 -2.2227769941
N 1.7192750965 -2.9403992479 1.7334698477
C 0.8994655730 -4.0852417189 2.1125088231
C -0.5386542699 -4.0222131039 1.5895569648
O -1.1713982327 -2.7874603414 1.9452635208
C -1.0196568213 -1.7226485706 1.0728185102
C -0.7369187188 -0.4670865988 1.6236683537
C -0.6039651686 0.6493558447 0.7725495466
C -0.7197258310 0.4907162435 -0.6179747761
C -1.0205585611 -0.7741047242 -1.1269583601
C -1.1893490504 -1.8723933930 -0.3011450354
C -0.5650703954 1.6231094189 -1.6061051337
C -1.8874737004 2.2944556759 -1.9622247801
O -2.3975181243 2.9481954511 -0.8110520590
C -3.6790746030 3.5242608609 -1.0313118945
C -4.1281176546 4.1825889936 0.2560623414
C -0.3055393549 1.9840469473 1.4008917587
C -0.5618635235 -0.3164748622 3.1097105777
Cl 2.8832114648 -0.1927433651 1.2973344841
H 4.9051323000 1.2824539365 -2.3263200190
H 4.9322300094 -0.4708521163 -2.5976946209
H 5.0636109956 0.1759759914 -0.9510544708
H 2.5985901903 0.4194546477 -2.7789589819
H 2.7082405516 1.0670487793 -1.1307486912
H 1.7612684182 -3.9611450473 -2.5207259775
H 1.7070240212 -2.1556985908 2.3665221394
H 0.8950028521 -4.1199006884 3.2062976358
H 1.3615499168 -5.0088016543 1.7442316522
H -1.1254266862 -4.8168231522 2.0625520898
H -0.5463584095 -4.1804588447 0.5090563829
H -1.1218709751 -0.9030793806 -2.2016476007
H -1.4368319776 -2.8368174518 -0.7287299970
H -0.1446724599 1.2211997690 -2.5355253777
H 0.1373151150 2.3828565971 -1.2507982892
H -1.7361208379 3.0239439349 -2.7775454821
H -2.6050828948 1.5335964280 -2.3161661220
H -4.3929752508 2.7412336634 -1.3386653741
H -3.6248229292 4.2628768436 -1.8499613762
H -3.4233157675 4.9646281436 0.5520508871
H -5.1161797541 4.6343028149 0.1276637662
H -4.1836694473 3.4439332232 1.0604904560
H -0.4071708668 2.8040907992 0.6943518280
H 0.7084514306 2.0011496713 1.8206682941
H -0.9966228572 2.1847715774 2.2256628862
H 0.3675668938 0.2133307489 3.3463437116
H -1.3791295029 0.2672294111 3.5500764372
H -0.5529689285 -1.2891305085 3.6025221178
