47
CONF51
C 3.3799193002 -3.6929437254 -2.6788568869
C 3.6442672777 -2.3805017731 -2.0585962942
C 2.8456962749 -1.4018424841 -1.5207985425
C 3.7677770733 -0.3914707179 -1.1070837527
N 5.0093645932 -0.7273484365 -1.3710265704
O 4.9305921142 -1.9982924116 -1.9653503229
C 3.4941485881 0.9090026083 -0.4717591243
C 3.8866322030 1.1550514781 0.8451242776
C 3.6289973324 2.3426353378 1.5052987974
C 2.9475489765 3.3409192162 0.8186215595
C 2.5365525271 3.1537310114 -0.4983390313
C 2.8145112735 1.9470704179 -1.1244410645
Cl 2.3068195396 1.7160731498 -2.7837081838
F 4.5272452187 0.1713268458 1.5086636601
C 1.3747613699 -1.4460175022 -1.4583976270
O 0.7167174426 -2.1606587475 -2.2165249541
N 0.8025365911 -0.6389983383 -0.5181630758
C -0.6092692723 -0.4809500990 -0.3987762191
C -1.3172059974 -0.8234371372 0.9565977802
N -1.7512243681 0.5796896506 1.0293370877
C -1.1624480580 0.9465188490 -0.1736067136
O -1.1369204242 1.9953826465 -0.7746364938
C -3.0901072362 0.8560033106 1.5007851548
C -3.9863869382 -0.3235665550 0.9663653886
S -2.8584808193 -1.8272898179 0.9967280120
C -4.4070029837 -0.0133031067 -0.4705175296
C -5.2074226571 -0.6083050834 1.8338386142
C -3.1669570178 1.0243269480 3.0103464036
O -3.9689717826 1.7517531832 3.5534516620
O -2.2680480196 0.2712253632 3.6611968907
H 4.2304228406 -4.3607282001 -2.5252752612
H 2.4745591120 -4.1296076464 -2.2559882117
H 3.2221113924 -3.5712211557 -3.7564640637
H 3.9539587522 2.4705930802 2.5313586130
H 2.7324685094 4.2812766602 1.3142651863
H 2.0105236519 3.9354200016 -1.0329516594
H 1.3937362843 -0.1360296398 0.1286435663
H -1.1039203630 -0.9584568052 -1.2494938014
H -0.6440871997 -1.1381747648 1.7578737830
H -3.4448007326 1.7935359809 1.0618515031
H -4.9314161451 -0.8717449529 -0.8976705683
H -3.5482258239 0.2112359396 -1.1093786248
H -5.0828152508 0.8495505315 -0.4770909737
H -4.9331956732 -0.8740090308 2.8581000076
H -5.8526701266 0.2759940212 1.8566892635
H -5.7804448281 -1.4344760147 1.4041640316
H -2.3798470345 0.4110574277 4.6183934990
