47
CONF143
C -3.2601754982 -3.7124552912 -0.0357463621
C -3.1109912474 -2.5503542146 -1.0235059613
C -3.0515965279 -3.0987502180 -2.4550244397
C -1.9048701430 -1.6221097278 -0.7766972816
C -0.5486266916 -2.3009841254 -0.4997496379
C 0.3227032148 -1.2198211426 0.1883357887
C -0.5818590639 0.0201703313 0.3455086373
C -0.2258731277 0.8977457506 1.5512686774
C 1.1560377199 1.4841707236 1.4159058285
C 2.2361890525 0.9701631176 2.1361681647
C 3.5213249202 1.4847639994 1.9807851535
C 3.7169580520 2.5307832173 1.0894333096
Cl 5.3370141571 3.1968397139 0.8846802842
C 2.6657497863 3.0701802901 0.3571071711
C 1.3919831829 2.5387763440 0.5280900492
C -2.0101023000 -0.5687750849 0.3420547642
O -2.2958710681 -1.2501033295 1.5742165731
C -3.1317331866 0.4715989832 0.1579173525
N -3.0166790410 1.2952364438 -1.0373460965
C -2.4701717107 2.5216607251 -1.1605142538
N -2.5293591624 2.9307059495 -2.4222993781
C -3.1401293426 1.8837115763 -3.0444112458
N -3.4564487905 0.8700789955 -2.2477063476
H -3.2682427187 -3.3721875872 1.0010197836
H -4.1980900053 -4.2429374087 -0.2335798733
H -2.4469212231 -4.4370852617 -0.1534636990
H -4.0161986164 -1.9318826864 -0.9501661896
H -2.1519934715 -3.7090966075 -2.5974702030
H -3.9199092099 -3.7322904067 -2.6648625026
H -3.0330043398 -2.2884179472 -3.1915441998
H -1.7883330619 -1.0264332796 -1.6915949771
H -0.6813847278 -3.1551271980 0.1687778511
H -0.0958500364 -2.6752090394 -1.4218868457
H 1.2238732212 -0.9797190201 -0.3824711579
H 0.6510761099 -1.5621536293 1.1756799686
H -0.4924840496 0.6358069793 -0.5598422055
H -0.2705800591 0.2988784065 2.4685063564
H -0.9521220193 1.7150181924 1.6507240546
H 2.0761578956 0.1518852604 2.8324007584
H 4.3526931687 1.0786056731 2.5459475088
H 2.8367890977 3.8909564718 -0.3304214467
H 0.5667925567 2.9574388171 -0.0419238816
H -3.1351684098 1.1539176311 1.0149431838
H -4.0987763624 -0.0372619363 0.1291959066
H -2.0605259531 3.0666313154 -0.3195565960
H -3.3650575909 1.8659268237 -4.1033997461
H -2.2722000320 -0.6065657858 2.2951937331
