51
CONF1
C -1.0879016027 -1.5749414735 1.6482534519
C -0.9864439981 -0.1573522284 1.1687108684
C -2.0772416949 0.5622744131 0.8728252983
C -2.0512576630 1.9708966380 0.4145909341
C -1.8457148275 2.3281309944 -1.0858986350
C -3.1620650036 2.5955621291 -0.3697686342
C -4.4020710368 1.7999003852 -0.7075423325
C -3.4442489990 4.0604890217 -0.1050274081
C -1.6278040361 1.2129288091 -2.0204142694
O -2.2767267818 0.1916584148 -2.1117678833
O -0.5176860214 1.4540395528 -2.7791642661
C -0.0916344235 0.3263608932 -3.5993303429
C 0.6318278218 -0.6870389101 -2.7822426579
C 2.0322030760 -0.7113055319 -2.4716620837
C 2.2400907930 -1.7812444469 -1.6581960215
O 1.0493332155 -2.4268416422 -1.4384711379
C 0.0854518266 -1.7468073174 -2.1257857343
C 3.4254194389 -2.3205616644 -0.9384423872
C 3.3689072936 -2.0238601954 0.5478027447
C 3.9951308870 -0.8909660867 1.0683546788
C 3.9068728822 -0.5908220839 2.4238738580
C 3.1840107406 -1.4202087302 3.2765128862
C 2.5523762998 -2.5500424100 2.7644616437
C 2.6458056368 -2.8499731397 1.4091721316
C 0.4114530891 0.3600970186 1.0119444224
H -0.5302315909 -2.2437188734 0.9802045709
H -2.1257065472 -1.9136898217 1.7010806429
H -0.6317554364 -1.6824594447 2.6407260530
H -3.0527142240 0.0920404622 0.9732187079
H -1.5043456967 2.6555545079 1.0613602172
H -1.2130083612 3.1894772941 -1.2728326055
H -4.1810576977 0.7561808382 -0.9230695324
H -5.1084848195 1.8551741664 0.1289251026
H -4.8915915911 2.2282822760 -1.5887728312
H -3.9001574415 4.5316800694 -0.9827058729
H -4.1389929268 4.1654600599 0.7358570839
H -2.5302095816 4.6094465864 0.1409069679
H 0.5685371213 0.7728936115 -4.3454431363
H -0.9654382817 -0.1079125156 -4.0909619576
H 2.7839548615 -0.0138868688 -2.8115855059
H -0.9245763036 -2.1111465663 -2.0322261291
H 4.3198111563 -1.8685676185 -1.3762691306
H 3.4913140130 -3.4033838722 -1.0985159437
H 4.5540584804 -0.2362156556 0.4050024597
H 4.4031400932 0.2919701533 2.8146405665
H 3.1141720763 -1.1879091979 4.3342770073
H 1.9866690767 -3.2022430069 3.4224744393
H 2.1484385419 -3.7305944757 1.0130024184
H 0.4450640126 1.4167661483 0.7396189648
H 0.9351734708 -0.2025513990 0.2285177863
H 0.9898506939 0.2089804419 1.9314857325
