47
CONF11
C -3.0222241207 -2.8458392545 0.6127852621
C -3.0786525458 -2.0407181034 -0.6917857930
C -3.3841802647 -2.9788308462 -1.8644368976
C -1.8063480600 -1.2187235132 -1.0001293821
C -0.4649464390 -1.9700676681 -0.7680222362
C 0.2384107440 -1.2118778768 0.3609209630
C -0.1583600767 0.2412752287 0.0918018898
C 0.2058018593 1.2369424635 1.2006431857
C 1.6977814877 1.3825955907 1.3429284365
C 2.3997425165 0.6965948111 2.3369015861
C 3.7844688598 0.7957281458 2.4471212070
C 4.4687826018 1.5982065357 1.5439331457
Cl 6.2227018887 1.7383200138 1.6731415391
C 3.8054114639 2.2983134556 0.5434596444
C 2.4219450850 2.1818566753 0.4529224393
C -1.6688801319 0.1354291254 -0.2179419796
O -2.3489122170 0.1400296602 1.0419074510
C -2.1365529774 1.3357215967 -1.0599455313
N -3.5260539383 1.2026714553 -1.4833238120
C -4.0147150267 0.8567667767 -2.6895061415
N -5.3367688467 0.7279768199 -2.6338887635
C -5.6094633158 1.0036540690 -1.3306407025
N -4.5451753641 1.2982842298 -0.5906795952
H -4.0126252078 -3.2572173445 0.8354111745
H -2.3341331307 -3.6930249737 0.5228618632
H -2.7060151327 -2.2318652913 1.4581149170
H -3.9199066059 -1.3374196502 -0.6138841164
H -4.2858577572 -3.5684374387 -1.6668909462
H -3.5389268934 -2.4174160684 -2.7922889405
H -2.5554371752 -3.6791995556 -2.0249992057
H -1.8685961888 -0.9567580127 -2.0638046039
H -0.6081746712 -3.0288312289 -0.5400043954
H 0.1484558251 -1.9181415119 -1.6740888768
H 1.3224810020 -1.3585923951 0.3669769907
H -0.1506319729 -1.5191005090 1.3403655142
H 0.3375457198 0.5578510025 -0.8379721258
H -0.2260741597 0.8958148161 2.1452336546
H -0.2333565412 2.2158014758 0.9739746390
H 1.8577525316 0.0710049635 3.0406426403
H 4.3186747172 0.2601306807 3.2239169106
H 4.3562360660 2.9255985513 -0.1485026777
H 1.8971365128 2.7295238700 -0.3256558153
H -1.5312341607 1.4135377791 -1.9669966976
H -2.0422211611 2.2616495979 -0.4843387055
H -3.3858530620 0.7232413648 -3.5601231786
H -6.6081976363 0.9963604691 -0.9126274486
H -3.3008407049 0.2131108381 0.8751898563
