63
CONF71
C 1.0812997356 -0.5314804988 1.7225920624
C 0.0241751932 -1.5747510323 1.3755492280
N 0.0561925992 -1.9011694772 -0.0548450675
C 1.3597892141 -2.4773180469 -0.4021119571
C 2.4793278222 -1.4722317958 -0.1449955342
C 2.4639154864 -1.0456001180 1.3229159560
N 3.5222399217 -0.0788258870 1.6292413602
C 4.5891542523 -0.2936591983 2.4956575519
C 4.9516916679 -1.3895311699 3.2658844963
C 6.1073332037 -1.2771885840 4.0453388151
C 6.8716498614 -0.1082892572 4.0512031469
C 6.5086779876 0.9963000677 3.2753849204
C 5.3637950294 0.8836566870 2.5037945916
N 4.7420437317 1.7684790349 1.6431899053
C 3.6047998934 1.2022179421 1.0885170706
O 2.8364571322 1.7307149800 0.2865158071
C -1.0454394385 -2.8034442469 -0.4200456918
C -2.3747390745 -2.0613109023 -0.5586821851
C -2.3840393843 -1.1159473283 -1.7622945200
C -3.4685788832 -0.0295450314 -1.6809687870
C -3.2984476196 0.9231508043 -0.5068056555
C -4.4237840575 1.5828086420 -0.0013551958
C -4.3224364692 2.5019978808 1.0384976193
C -3.0673728288 2.7495395980 1.5687454058
C -1.9266556688 2.1182010322 1.1076105636
C -2.0540695251 1.2022258571 0.0647549522
F -2.9535136550 3.6451966496 2.5873905083
C -3.5411968333 0.7447855904 -2.9870568420
C -4.6248308633 0.5807538142 -3.8522606097
C -4.6894660295 1.2598713236 -5.0683342479
C -3.6453055485 2.1039189453 -5.3990424951
C -2.5500313928 2.2974837580 -4.5730163472
C -2.5096092339 1.6114139970 -3.3634206101
F -3.6964666871 2.7766831654 -6.5814026582
H 1.0571702563 -0.3243166858 2.7984400032
H 0.8692992338 0.4011259361 1.1904432693
H -0.9638744831 -1.1818477529 1.6352982996
H 0.1874672612 -2.4862512813 1.9880460838
H 1.5565329042 -3.4054558092 0.1747491964
H 1.3501884230 -2.7500666974 -1.4632869478
H 2.3355806894 -0.5941081889 -0.7827016327
H 3.4473418908 -1.9224873294 -0.3917172285
H 2.6835492172 -1.9293415176 1.9334690603
H 4.3680913664 -2.3032769028 3.2707834833
H 6.4128898642 -2.1197838477 4.6569528464
H 7.7632452797 -0.0531995295 4.6671342908
H 7.0973649487 1.9075279233 3.2743199373
H 5.0447278870 2.7045679281 1.4249427618
H -1.1440431925 -3.6283779189 0.3117366541
H -0.7981613677 -3.2635260408 -1.3856380200
H -3.1826246993 -2.7962970732 -0.6595424487
H -2.5847790237 -1.5021042951 0.3601787065
H -1.4005367360 -0.6436912918 -1.8681104691
H -2.5474688228 -1.6924518320 -2.6808070422
H -4.4367504019 -0.5301855084 -1.5509514586
H -5.4005347094 1.3762776823 -0.4311952198
H -5.1936552063 3.0134997368 1.4335416796
H -0.9624271060 2.3331585218 1.5564581597
H -1.1633347168 0.6917971150 -0.2878921411
H -5.4354128048 -0.0874441955 -3.5752484554
H -5.5304150360 1.1390513662 -5.7428065467
H -1.7545360739 2.9720458794 -4.8711939415
H -1.6614509681 1.7610919020 -2.7015475688
