47
CONF85
C -3.9879386353 -1.8542740898 0.5523489831
C -2.6968436775 -1.4698018724 1.2386041943
C -2.6180672955 -1.4431165417 2.7494510243
C -2.7077563116 -0.1293184019 1.9789936364
C -1.5226460074 0.7388057283 1.9333961614
O -0.3940385550 0.4611749176 2.2772392110
O -1.8547744176 1.9527655528 1.3926748447
C -0.7214628686 2.8249794063 1.1395046918
C -1.2886350789 4.1652747464 0.9970428528
N -1.7017656221 5.2367021122 0.8768260303
C 0.0262284126 2.4055374174 -0.1087546192
C 1.3836634762 2.1153076070 -0.0258609973
C 2.0574123874 1.6933427018 -1.1685294705
C 1.3914323607 1.5608229146 -2.3853156565
C 0.0316036721 1.8522368434 -2.4479591869
C -0.6584669566 2.2772161817 -1.3178153570
O 3.4129910232 1.4790916697 -1.0366806706
C 4.0123171847 0.4819160476 -1.7955030745
C 5.2310154035 0.7840687611 -2.3918205370
C 5.9063090303 -0.2118458319 -3.0936853693
C 5.3633229833 -1.4901352369 -3.2020190279
C 4.1402571094 -1.7749337808 -2.5956644223
C 3.4580662106 -0.7928410381 -1.8838698176
C -3.7443674773 -1.8359263423 3.5995207683
C -3.6477958398 -2.5505040543 4.7209904581
Cl -5.0448710040 -2.9779962023 5.6760550032
Cl -2.1462973836 -3.1476482386 5.3743929409
C -1.4583032010 -1.9012366897 0.4871475161
H -4.8698954579 -1.4493652971 1.0524335675
H -4.0782369021 -2.9455707572 0.5161568310
H -3.9805742777 -1.4802763106 -0.4765752039
H -1.6278927668 -1.6485074273 3.1442907520
H -3.6609753884 0.3885171942 1.9734875997
H -0.0502181867 2.8247684224 2.0059258317
H 1.9195160742 2.1977698716 0.9140131996
H 1.9285090721 1.2368579046 -3.2700831788
H -0.4898705378 1.7543199435 -3.3944848681
H -1.7190310609 2.5014537418 -1.3734807127
H 5.6371982226 1.7860445940 -2.3007687418
H 6.8584557522 0.0180028509 -3.5615117603
H 5.8904961706 -2.2619102927 -3.7530890896
H 3.7154535994 -2.7713003882 -2.6674692441
H 2.5105824803 -1.0108880700 -1.4016635587
H -4.7444742646 -1.5279825726 3.3098735892
H -1.4904720296 -2.9849199296 0.3332137069
H -0.5402281023 -1.6561539815 1.0235848955
H -1.4289298054 -1.4205230530 -0.4975170143
