47
CONF4
C 0.6071109016 -0.9858026842 -0.3944318735
C 1.3850513521 -2.1234769977 0.2666856469
C 2.8890810345 -1.8090734638 0.3449607352
C 3.1641570705 -0.3073177668 0.6314637123
O 4.4166478181 -0.1377692366 1.2985524112
C 1.9498997653 0.2930421134 1.3658189460
C 0.9678575771 0.4318497943 0.1943895809
C 1.8486131791 1.1816392486 -0.8268039468
C 3.1868738670 0.4978985060 -0.6678218217
C 4.2275668042 0.5777274667 -1.4911589722
C -0.4065785677 1.0951052184 0.5418131080
C -0.4065265835 2.5808625041 0.3044497133
O 0.1571262811 3.2450529213 1.3361078580
O -0.8253350077 3.1373374450 -0.6894194246
C -1.4322891957 0.3476636108 -0.3139688462
C -2.8200185900 0.1145200565 0.2848290718
C -3.5439771765 1.3169181410 0.8638562317
C -3.6945745547 -0.6228805475 -0.7868405218
O -4.2501558185 0.2923694902 -1.7376226945
C -2.9392082885 -1.7153372953 -1.5026025074
C -1.6356790650 -1.9336629205 -1.3148024408
C -0.9039100663 -1.0852451127 -0.3173075635
O -1.3225298056 -1.5553304475 1.0432602893
C -2.4785799462 -0.9220777152 1.3606388130
O -3.0947230785 -1.1830730519 2.3666555279
H 0.8461424709 -0.9751893646 -1.4666278163
H 0.9952604349 -2.2795530405 1.2755655229
H 1.2215288481 -3.0576900260 -0.2809778401
H 3.4045455956 -2.0929436901 -0.5777708099
H 3.3273270669 -2.3985179684 1.1598032712
H 4.4147924451 -0.7146781223 2.0734151357
H 2.2057134375 1.2812414584 1.7637134838
H 1.5784113079 -0.3342894264 2.1812765600
H 1.4584788375 1.1551884034 -1.8485870470
H 1.9534016769 2.2355631091 -0.5336038270
H 5.1583582954 0.0643135253 -1.2683680207
H 4.1806329922 1.1634158760 -2.4050547083
H -0.5951356345 0.9272217858 1.6083451795
H 0.1749393225 4.1922415878 1.1142390750
H -1.4549080117 0.7685556142 -1.3231450212
H -3.7170358088 2.0629627342 0.0858295864
H -4.5107105393 1.0138445700 1.2774055602
H -2.9589509948 1.7722928933 1.6684422005
H -4.5653351683 -1.0483383664 -0.2719607273
H -3.5465331714 0.5622137256 -2.3437498636
H -3.5152631783 -2.3084586825 -2.2084561615
H -1.1015595328 -2.7203360790 -1.8404347700
