40
CONF19
C -4.8091585252 0.4046815687 4.1989135471
N -4.7927779515 0.0615173017 2.7730186501
C -3.4657318779 0.2623136170 2.1858673928
C -3.4844121625 -0.0657549082 0.6968431595
C -2.1479417918 0.1999418185 0.0133800160
O -1.1995843528 -0.6968708919 0.6373847115
C 0.1264269358 -0.5146739449 0.4097350848
C 0.6695845862 0.5129015977 -0.3678503421
C 2.0501877205 0.6058657906 -0.5116935896
C 2.8895198571 -0.3128467449 0.1104257132
C 2.3427870236 -1.3448464168 0.8802467474
C 0.9723084261 -1.4452242568 1.0296819792
C 4.3686908483 -0.2452804675 -0.0708952280
F 4.7898104402 0.9634429946 -0.5126081012
F 4.8234705462 -1.1633113818 -0.9757345504
F 5.0403151536 -0.5018575096 1.0833503199
C -2.2307743930 -0.0276606302 -1.4788788550
C -2.5281778799 1.0426713114 -2.3238804537
C -2.6625839650 0.8424792704 -3.6950572159
C -2.4925708068 -0.4311331225 -4.2339873258
C -2.1914179327 -1.5015703914 -3.3943083582
C -2.0639670451 -1.3023190272 -2.0220586638
H -5.8284090595 0.3189098939 4.5881686159
H -4.4404760110 1.4242361864 4.4100821266
H -4.1761518121 -0.2996150953 4.7509828434
H -2.7601255765 -0.3984650508 2.7043518611
H -3.0951554658 1.2973422331 2.3255854224
H -3.7653446987 -1.1137556148 0.5369512459
H -4.2354880482 0.5531178163 0.1900177419
H -1.8401845042 1.2360791453 0.2147388646
H 0.0381665158 1.2354678813 -0.8681741710
H 2.4651559112 1.4053780448 -1.1152715275
H 2.9905451197 -2.0676001963 1.3656913479
H 0.5335917526 -2.2365066992 1.6281169985
H -2.6497545816 2.0388117447 -1.9052989140
H -2.8916497124 1.6824797625 -4.3435810138
H -2.5900769372 -0.5879307743 -5.3036580804
H -2.0547727993 -2.4957279915 -3.8088073887
H -1.8254546108 -2.1372601890 -1.3702625872
H -5.4477595834 0.6707137883 2.2906101458
