123
CONF101
C -2.6959911883 4.2730568704 -0.1091294866
C -1.3598659650 3.5134320771 -0.0573243055
C -0.9325595289 3.3541685866 1.3714996208
C 0.0172491453 4.0131222705 2.0609864627
C 0.8884516496 5.0700423458 1.5852232994
C 1.9486917419 5.5641177726 2.2646522146
C 2.2833709821 4.8851170110 3.5551239662
O 1.6582627910 5.0494658668 4.5952356094
N 3.2757827223 3.8935767350 3.4586085662
C 2.7509584310 2.5702538692 3.6081844023
C 2.0755178896 2.0908432693 4.6944248433
C 1.2565715450 0.8744950205 4.6266701562
C 0.9874872657 0.2845945014 3.3737969040
C -0.0495835098 -0.6518945616 3.2699215495
C -0.6446465682 -1.1725846871 4.4285871325
C -0.3168823261 -0.7354315660 5.7048711994
C 0.5923250122 0.3341603855 5.7787126775
O 0.8145191374 0.8064139139 7.0146457914
C -0.9526188278 -1.2864911525 6.9424467687
O -1.6206902934 -2.0810876005 4.1827992427
C -1.9828333510 -1.9560613593 2.7578258211
C -0.8991893944 -1.0143982480 2.1721753450
O -0.9643244749 -0.6127527108 1.0187886234
O -2.0194672199 -3.2012634422 2.1362223997
C -0.8256038145 -3.6570082618 1.5688043031
C -0.7059997364 -3.7840132823 0.2516967479
C -1.7839229420 -3.4589685523 -0.7471805693
C -1.2791133488 -2.5804756139 -1.9078724923
C -2.4345469137 -1.7944914328 -2.5829035692
C -2.7088421178 -0.4127243232 -1.9311022058
C -1.9499041538 0.6561944840 -2.7533768415
C -1.9544830163 2.0893874337 -2.1573185138
C -1.4796895261 2.1096534788 -0.6937411887
O -0.1970247351 1.4689433872 -0.6183029832
C -1.1321913170 3.0225588940 -3.0523998185
O -0.6191838407 0.2310780544 -3.0573716382
C -4.1961579677 -0.0611128559 -1.8505908345
O -3.6591082921 -2.5844819331 -2.5177634520
C -3.9844571449 -3.3360048374 -3.5939051890
O -3.3787423121 -3.3482808531 -4.6399834664
C -5.2031720663 -4.1691407011 -3.3043430368
C -0.4609447828 -3.3715784145 -2.9293187335
O -2.2845486045 -4.6931823116 -1.2916853360
C -3.1629900462 -5.3578661587 -0.3983169107
C -3.3646150563 -1.3492445521 2.6817377411
C 1.8691951565 0.6322137467 2.2843631765
N 2.0735984840 0.0293601069 1.1593970755
C 3.1990404051 0.7418152600 0.5486068558
C 2.8615148712 1.2333927169 -0.8697094708
C 2.5716321146 0.0595794537 -1.7934698875
N 3.7257685295 -0.8381539146 -1.8857751179
C 4.0604672813 -1.3663933319 -0.5608507421
C 4.3838833347 -0.2510712040 0.4251790943
C 3.4655136013 -1.9503860017 -2.8034482064
C 3.2473567561 -1.5447428976 -4.2647371828
C 3.1029338164 -2.8097351066 -5.1137890889
C 4.3864524280 -0.6653938012 -4.7784526416
N 3.5786759503 1.8610255067 1.4112574180
C 2.7975351949 1.7524344313 2.4374305401
O 2.0284957028 2.7802464764 5.8755962268
C 2.8621466010 6.6413871999 1.7714641966
H -3.0070968235 4.4667570799 -1.1395094356
H -3.4867082285 3.6941758890 0.3822454563
H -2.6126159730 5.2317591291 0.4098052484
H -0.5977976018 4.0698000596 -0.6143120210
H -1.4989683767 2.6024860957 1.9257735054
H 0.1352490588 3.7312381644 3.1046647689
H 0.6876202649 5.4957453909 0.6038798821
H 3.7549694694 3.9253667452 2.5615352808
H 1.3288114651 1.6366008911 6.9384892456
H -1.6964607634 -2.0409014685 6.6847250856
H -1.4320658464 -0.4897294850 7.5191927152
H -0.2005749957 -1.7406306961 7.5958185190
H -0.0465577690 -3.9148550535 2.2840918566
H 0.2185726550 -4.2106053382 -0.1278404689
H -2.6013393855 -2.9356978422 -0.2306678168
H -0.6231561299 -1.8296965061 -1.4525798448
H -2.1975450074 -1.6575037176 -3.6415564321
H -2.3043736718 -0.4417079451 -0.9140205040
H -2.4577301223 0.7176150633 -3.7288866249
H -2.9962043430 2.4323713087 -2.1689590902
H -2.2024150555 1.5410162234 -0.0867253906
H -0.2294542934 0.7790395336 0.0712339871
H -1.3897458031 2.8661511290 -4.1041907888
H -0.0614074269 2.8296387129 -2.9465259759
H -1.3186140917 4.0740376987 -2.8138732114
H -0.1015833156 0.4529522996 -2.2659711433
H -4.3381183600 0.9102765037 -1.3669752906
H -4.6479482331 -0.0121105548 -2.8481620837
H -4.7494655139 -0.8049501246 -1.2741419665
H -4.8670265994 -5.1057437829 -2.8477960036
H -5.8754490450 -3.6711035751 -2.6033191318
H -5.7142674379 -4.4018636553 -4.2386202957
H -1.0821554432 -4.0898572696 -3.4665564551
H -0.0270372274 -2.6764452268 -3.6543995990
H 0.3571122012 -3.9192075741 -2.4500330943
H -4.0589767627 -4.7482685249 -0.1995631240
H -3.4597791276 -6.2933913788 -0.8799789280
H -2.6765616707 -5.5904143724 0.5602256840
H -4.0906430810 -2.0585381698 3.0859968694
H -3.5957159203 -1.1404596301 1.6338028240
H -3.4039298176 -0.4196500538 3.2550967664
H 3.7345604111 1.7854246141 -1.2322912901
H 2.0040654979 1.9063773089 -0.8251548352
H 2.3455081308 0.4539130596 -2.7897504857
H 1.6742862483 -0.4859159122 -1.4374945734
H 4.9427108771 -2.0110275536 -0.6627069480
H 3.2387086864 -1.9887080722 -0.1543371900
H 5.2510604282 0.3209229178 0.0818145027
H 4.6085664917 -0.6676782854 1.4128212571
H 2.5896444653 -2.5445545469 -2.4653419397
H 4.3385649157 -2.6185102564 -2.7623485723
H 2.3039139087 -0.9877833168 -4.3430705019
H 4.0311740295 -3.3937256883 -5.1000438398
H 2.8828194443 -2.5562470937 -6.1552062425
H 2.2939536115 -3.4497716169 -4.7459143239
H 4.2256075624 -0.3943078878 -5.8270078765
H 5.3411426540 -1.2008212338 -4.7090660391
H 4.4820165721 0.2507810025 -4.1899484638
H 2.0057070980 3.7491059001 5.6581857823
H 3.9003363002 6.2928770544 1.6938687993
H 2.8657674981 7.4929199640 2.4623489168
H 2.5475337790 6.9933179112 0.7864575368
