37
CONF389
C 1.3650560831 -3.5458365527 -1.3337829417
C 0.0645408578 -2.9904802931 -0.8118382529
O -0.1875322200 -1.7234825042 -1.5164259819
P -1.1638596630 -0.6271140888 -0.9203539607
O -1.4029984718 0.5189045794 -1.8170251195
O -2.4390698551 -1.4546078195 -0.4417153288
C -3.7396827086 -0.7909407514 -0.3230651175
C -3.7921144249 0.1328295155 0.8735924768
O -0.5108544855 -0.2172874491 0.5259526802
P 1.0257852821 0.1910441966 0.8715162892
O 1.9728034808 -0.9385966079 0.9542877855
O 1.3272851808 1.3128222383 -0.2203085935
C 2.6126169008 1.3600469814 -0.9256260467
C 2.5047129898 0.6366581184 -2.2468706170
O 0.8346342357 0.9369491602 2.2601688909
C 0.0359832428 2.1635776798 2.3481723889
C 0.9518181395 3.3523345607 2.5234059525
H 2.1896531931 -2.8721413705 -1.0890216574
H 1.3203705316 -3.6905965880 -2.4167385051
H 1.5563715280 -4.5140331810 -0.8608521861
H -0.7828513321 -3.6504532339 -1.0205696628
H 0.1222491845 -2.7962871669 0.2634435738
H -4.4466342007 -1.6172761919 -0.2237651348
H -3.9398343941 -0.2562184592 -1.2566383215
H -3.1127303731 0.9812048025 0.7481439460
H -4.8087938802 0.5251594020 0.9775796785
H -3.5282244516 -0.4012454668 1.7905861320
H 3.3890655906 0.9281989816 -0.2870302597
H 2.8107845454 2.4261667150 -1.0606453925
H 1.6913660133 1.0519603012 -2.8480306928
H 3.4440735059 0.7477873592 -2.7982831675
H 2.3159119924 -0.4288260578 -2.0908736604
H -0.5894243883 2.2638153569 1.4548090189
H -0.6151180892 2.0200318025 3.2145078546
H 1.5777373937 3.2300022595 3.4113219577
H 1.5957627594 3.4762973345 1.6485654950
H 0.3511411116 4.2596321304 2.6434068719
