40
CONF12
C 4.1071585360 -2.3262047680 0.6568148259
O 4.2836568634 -0.9726109672 0.1578526545
C 3.6244447365 -0.6828828779 -0.9643069027
O 2.9200686747 -1.4645379601 -1.5713755182
C 3.8667743713 0.7301349225 -1.4611489332
S 4.2596397339 2.0122454033 -0.2268648132
C 2.7465139229 2.1291610225 0.6988379358
C 1.6105628006 1.3592146458 0.4406945229
C 0.4374588435 1.4804772510 1.2007655808
C 0.4560234980 2.3980597599 2.2581189265
C 1.5561429160 3.1798335488 2.5455859502
C 2.6934509733 3.0413792155 1.7606987580
Cl 4.0916656008 4.0344475500 2.1282915310
F -0.6510235748 2.5339414746 3.0219249116
N -0.6868952985 0.6920091487 1.0076149402
C -1.1708212810 0.4917919032 -0.1632363961
N -2.1741426574 -0.4169243290 -0.3944910469
N -2.8222675439 -0.2326522780 -1.6301630520
C -2.1773311389 0.5734010372 -2.5155427500
O -2.4636771802 0.7427078589 -3.6855819312
S -0.7661776435 1.3535898966 -1.6846992354
C -3.6411123039 -1.3676924829 -2.0929680629
C -4.6330421133 -1.7580093189 -1.0075829199
C -3.8910954506 -2.0301389142 0.2978850286
C -3.0741772635 -0.8145542004 0.7101164952
H 4.4674847141 -3.0454993505 -0.0815761511
H 3.0516726310 -2.5060126659 0.8727371391
H 4.7020132469 -2.3742449852 1.5673693317
H 3.0201091484 1.0260475204 -2.0860558524
H 4.7547841662 0.6993891067 -2.1054123929
H 1.6143513858 0.6160588292 -0.3466035861
H 1.5213548791 3.8874229330 3.3658821519
H -4.1384646539 -1.0355140072 -3.0052933879
H -2.9730785297 -2.2070352892 -2.3317223081
H -5.3618165554 -0.9507083163 -0.8676405492
H -5.1763527723 -2.6475788485 -1.3395031361
H -4.5939653984 -2.2578668722 1.1047289674
H -3.2266346061 -2.8943218454 0.1786778089
H -2.4360539951 -1.0313699170 1.5665905014
H -3.7272028883 0.0350470441 0.9572859412
