39
CONF107
C 2.5027443931 1.7031753022 -1.8359367911
C 3.3135215260 0.5233382139 -1.3013130482
C 2.4865578031 -0.7320788179 -1.0137753233
C 1.4461021453 -0.5839526438 0.0782895474
C 0.8481645702 -1.8944799734 0.5575848017
O -0.4503488166 -1.5102692674 1.0414948363
C -0.8177136891 -0.2895706874 0.4027414928
C -2.0648720054 -0.5392256118 -0.4712770014
N -1.8113047343 -1.5659554909 -1.4627065398
C -1.1912570831 -1.4382156398 -2.6532461308
N -1.0583678783 -2.6253812856 -3.2324391898
C -1.6235206291 -3.4671020554 -2.3200561983
N -2.0916237563 -2.8738326043 -1.2299576149
O 0.2617221775 0.0838376513 -0.4294672065
C -1.1145094971 0.7680705129 1.4711061969
C -1.2945340242 2.1270343227 1.1868008680
Cl -1.2015863974 2.7639002388 -0.4512566423
C -1.5555260604 3.0637416709 2.1824460221
C -1.6518602586 2.6243151696 3.4948398757
Cl -1.9799133386 3.7986984858 4.7568294652
C -1.4959689659 1.2862800992 3.8264979852
C -1.2308226885 0.3795421179 2.8084710583
H 3.1604499994 2.5374846843 -2.1001942180
H 1.9410803836 1.4165163315 -2.7324841448
H 1.7823435082 2.0604709316 -1.0949256484
H 3.8360116890 0.8213280222 -0.3829908670
H 4.0910094278 0.2579017054 -2.0275558301
H 3.1619372724 -1.5388332359 -0.7004632299
H 1.9782381463 -1.0788162534 -1.9235602671
H 1.8428675834 -0.0081007420 0.9292410213
H 1.4038743944 -2.3496370331 1.3810530022
H 0.7482563159 -2.6082422144 -0.2732304009
H -2.8845013755 -0.8693663903 0.1704225263
H -2.3570139815 0.3791076470 -0.9841417360
H -0.8735919717 -0.4821817095 -3.0474752915
H -1.7005333339 -4.5378729343 -2.4627483056
H -1.6801681085 4.1104872743 1.9336813981
H -1.5759649856 0.9545875454 4.8550226540
H -1.0993775446 -0.6667025477 3.0546787524
