48
CONF12
C -3.2744207192 2.0293025530 -1.2011492862
C -3.0177418512 0.9249725071 -0.1777892299
C -2.7093028982 1.4474922742 1.2393510178
C -3.2074067000 0.3025770464 2.1258103944
N -4.4697127859 -0.1522540094 1.5035739152
C -4.2617464271 -0.0177695159 0.0510457537
N -3.8936664301 -1.2775643437 -0.6014194783
C -2.5287931433 -1.3193130128 -0.8220295894
C -1.9596213875 -0.0495085381 -0.6456252301
C -0.6145327891 0.1624446295 -0.8608488306
C 0.1685409958 -0.9275597447 -1.2420670196
C -0.3748196767 -2.1910921111 -1.4034736536
C -1.7391843171 -2.4058492100 -1.1955783837
O 1.5299348647 -0.7661098043 -1.5376393632
C 2.3407014012 -0.2750946164 -0.5365905223
O 1.9745098899 0.0049943071 0.5802217363
N 3.6065960682 -0.1699536273 -1.0482429312
C 4.7659802524 0.2929251136 -0.4068044920
C 5.9420244950 0.3277177828 -1.1672713496
C 7.1288577552 0.7736669102 -0.6044245658
C 7.1642311314 1.1917537887 0.7228198022
C 5.9944849717 1.1545580189 1.4743316250
C 4.7949224158 0.7103660176 0.9279716317
C -4.6522190854 -2.4752186395 -0.3114113054
C -5.6258629519 0.6114033714 1.9770095038
H -3.5259364371 1.6019951179 -2.1768349849
H -4.0983833164 2.6754520480 -0.8782315574
H -2.3819020723 2.6510432137 -1.3257541304
H -1.6457959039 1.6656261989 1.3736973062
H -3.2746490749 2.3663596581 1.4366229878
H -3.3739844718 0.5872420380 3.1687878202
H -5.1814128167 0.3716157179 -0.4066890553
H -0.1610499379 1.1371277904 -0.7155779332
H 0.2747429943 -3.0112913327 -1.6892539917
H -2.1571104727 -3.3989797444 -1.3148712821
H 3.7055705920 -0.4546236935 -2.0103843755
H 5.9226911276 0.0035589112 -2.2045297677
H 8.0297028470 0.7938466737 -1.2092838352
H 8.0913895806 1.5407838854 1.1640901508
H 6.0070990715 1.4761179327 2.5110171187
H 3.8917648842 0.6832071906 1.5203985170
H -4.3430066588 -2.9548922159 0.6293769250
H -5.7114200136 -2.2163466346 -0.2274157058
H -4.5452771957 -3.1949383272 -1.1307680621
H -5.5513333620 1.7027786044 1.8134685899
H -5.7581625102 0.4380362871 3.0496102033
H -6.5304064958 0.2568062788 1.4720381101
H -2.4812169954 -0.5204576542 2.1121063213
