59
CONF17
C 7.0110304749 -1.7304820578 0.8523409221
C 5.5536021248 -1.3427875749 1.1016077876
C 5.0640766388 -0.4508513010 -0.0485357908
N 3.6275676625 -0.2426613170 0.0412127922
C 2.7685023968 -1.1680209229 0.5125275800
N 1.4354989606 -1.0668764447 0.4542263114
N 1.0657702382 0.0796940762 -0.1347328657
C -0.2248681047 0.3432545465 -0.2482897975
C -1.3417417506 -0.4443330501 0.2463490021
C -1.3734058298 -1.7505396935 0.5877392155
C -2.5478752715 -2.4482837606 1.0936605443
C -2.5660835249 -3.8527602915 1.0633230252
C -3.6610875994 -4.5731825594 1.5150972195
C -4.7702974974 -3.8983744196 2.0190017077
C -4.7676911823 -2.5034715747 2.0790238304
C -3.6714867097 -1.7909110454 1.6257031486
C -5.9382742883 -4.6599216006 2.5652401904
F -5.8407970733 -4.8359859918 3.9116392147
F -7.1117009518 -4.0184640878 2.3468638919
F -6.0477628231 -5.8942998389 2.0205448006
C -0.4846479743 1.6066821522 -0.9120727581
C -1.6811084481 2.0797104448 -1.3263538336
C -1.9135263647 3.3531206174 -1.9872760021
C -0.9328647143 4.3558236201 -2.1084595864
C -1.2042226760 5.5468081032 -2.7566073029
C -2.4715899925 5.7817506473 -3.2949272521
C -3.4616142497 4.8094369591 -3.1805173713
C -3.1825342206 3.6164821676 -2.5316080980
C -2.7339717366 7.0601432379 -4.0272224384
F -2.2698563879 7.0161318667 -5.3065595424
F -2.1227948876 8.1178249100 -3.4370178676
F -4.0534193853 7.3505479384 -4.1034236860
N 3.2752936893 -2.2610887465 1.1342482345
C 4.6863628612 -2.6108886792 1.0874732112
C 5.4192157939 -0.6144293758 2.4432565639
H 7.3813954567 -2.3760494510 1.6552494270
H 7.6472493853 -0.8400998122 0.8210958561
H 7.1275162434 -2.2653078076 -0.0962917171
H 5.3358705049 -0.9136720981 -1.0111199832
H 5.5634261003 0.5239413474 0.0004512162
H 3.1681777763 0.5218224377 -0.4366919759
H -2.2673563920 0.1199572846 0.3342386439
H -0.4826991606 -2.3511137900 0.4534580035
H -1.7057917560 -4.3807526513 0.6628256446
H -3.6581926622 -5.6565280590 1.4721479496
H -5.6251760278 -1.9799971030 2.4881025172
H -3.6779528774 -0.7092892081 1.7050360149
H 0.4166746257 2.1835495395 -1.1028467414
H -2.5689455476 1.4640791841 -1.2022475273
H 0.0504357049 4.2065459733 -1.6769489047
H -0.4367703012 6.3096577203 -2.8340483462
H -4.4485542397 4.9883319749 -3.5918402175
H -3.9596822940 2.8629028173 -2.4440143738
H 2.5879511673 -2.9443253244 1.4090913967
H 4.9201727285 -3.2015224179 0.1862716479
H 4.9218411294 -3.2308110921 1.9600103987
H 4.3850206623 -0.3254445830 2.6467303393
H 6.0330930859 0.2920082599 2.4480278371
H 5.7605990671 -1.2566803808 3.2615327275
