51
CONF120
C -0.8113190345 0.1826967163 2.9475888052
C -1.3179616991 1.1180990428 1.8884074296
C -2.5520113532 0.9903649835 1.3765731965
C -3.1435192199 1.8931343789 0.3642938497
C -3.0379865610 1.5964412348 -1.1634932616
C -4.3691977369 1.5482566277 -0.4192966198
C -5.0803732046 0.2333119909 -0.1978983383
C -5.3101339591 2.6877966840 -0.7546674773
C -2.2848102311 0.4111989749 -1.5881522468
O -2.3126079943 -0.6999107259 -1.0894425160
O -1.4733477410 0.7306393497 -2.6352760154
C -0.5386213266 -0.3085496238 -3.0691548549
C 0.7085680748 -0.2625648128 -2.2600549634
C 0.8929308399 -0.6443243629 -0.8862765354
C 2.1926718270 -0.3912087705 -0.5781057684
O 2.8387576235 0.1171928507 -1.6810386919
C 1.9175362898 0.1929355204 -2.6881633857
C 3.0116190619 -0.5705896280 0.6487343775
C 4.1025737367 -1.6084784474 0.4706216316
C 5.4459499548 -1.2356651121 0.4178675025
C 6.4416170644 -2.1948110713 0.2349514969
C 6.1018427770 -3.5385541998 0.1027250746
C 4.7606814836 -3.9187367913 0.1540889202
C 3.7692817349 -2.9594080119 0.3344931680
C -0.3386205059 2.1626997612 1.4406876066
H -0.5072888268 0.7378211083 3.8442074382
H 0.0822861280 -0.3478711720 2.5927540757
H -1.5655195483 -0.5556302763 3.2321675703
H -3.1750251759 0.1759975952 1.7405744287
H -3.0050426529 2.9554377346 0.5555029338
H -2.8762932924 2.4697812124 -1.7862504161
H -5.6599803896 -0.0285445379 -1.0898668235
H -4.3950684289 -0.5857397093 0.0142416411
H -5.7805893433 0.3366764574 0.6389369303
H -5.8740982205 2.4654554791 -1.6673265202
H -6.0268301111 2.8324821055 0.0616913262
H -4.7665481888 3.6252991743 -0.9034631647
H -0.3300534583 -0.0720947495 -4.1138290791
H -1.0345296103 -1.2799219085 -3.0018031415
H 0.1460687606 -1.0413996075 -0.2154532063
H 2.2707173348 0.5788738624 -3.6327739022
H 2.3315944921 -0.8733455754 1.4515798189
H 3.4598731940 0.3865653658 0.9406846007
H 5.7149253617 -0.1879017260 0.5223372987
H 7.4831486640 -1.8899678974 0.1971726617
H 6.8759581438 -4.2865707843 -0.0378195688
H 4.4879555425 -4.9651856781 0.0551861807
H 2.7244547974 -3.2580051544 0.3714457586
H -0.7226261628 2.7843575269 0.6293827560
H 0.5842886488 1.6792728512 1.0936438766
H -0.0552975852 2.8121914493 2.2787693103
