22
CONF3
C 4.1589492397 1.5133665544 -0.1304890687
C 3.2764704872 2.0612710075 0.7943292340
C 1.9596917267 1.6204115623 0.8333676976
C 1.4921916384 0.6306728316 -0.0336079422
C 2.3820308688 0.0904708613 -0.9665507364
C 3.6954386087 0.5352327215 -1.0003098111
Br 4.8960335299 -0.2224351868 -2.2829746212
C 0.0898600728 0.1502297823 -0.0151121797
C -0.8229618115 0.6752108449 -0.9292149735
C -2.1446055185 0.2444840232 -0.9541759227
C -2.5713284706 -0.7322037550 -0.0546108428
C -1.6749106003 -1.2762419722 0.8604884383
C -0.3602525405 -0.8329932960 0.8681982024
Br 0.8451218374 -1.6153639646 2.1235644983
Br -4.3604553371 -1.3718786007 -0.0291128868
Br -3.3150824120 1.0219800299 -2.2343282364
Br 0.7708755327 2.4094844210 2.1060747478
H 5.1872648096 1.8528526827 -0.1665124087
H 3.6184989224 2.8306923311 1.4764381331
H 2.0350090415 -0.6770087397 -1.6488658364
H -0.4926560594 1.4376037286 -1.6256444664
H -2.0040170958 -2.0398793643 1.5537683401
