33
CONF9
C 4.7921378881 0.6559019803 -1.3964068241
C 5.7770109993 1.7470382329 -1.8187831655
O 6.2715826246 2.5282088918 -0.7322877192
C 3.5584121248 1.1911006561 -0.6997397726
C 2.3963947457 0.1507675763 -0.6549018531
C 1.2133983285 0.5058335887 0.3112680311
C -0.1049613613 -0.2860914301 -0.0070950523
C -1.1232638402 -0.2974679877 1.1888479888
C -2.5829460324 -0.6735436124 0.7496543929
C -3.4865714197 -1.1314930952 1.9458586953
C -5.0194928268 -1.0878379694 1.6358999119
F -5.4607287371 0.1725539729 1.5742859569
F -5.2766150625 -1.7025843086 0.4727988149
F -5.6749400846 -1.7228417206 2.6165421718
F -3.2614137519 -0.3314709765 3.0136699558
F -3.1702450544 -2.4031028692 2.2699133060
F -3.1512687687 0.4046413173 0.1643663299
F -2.5261689114 -1.6832163619 -0.1485150493
F -1.1514762237 0.9302327524 1.7540642571
F -0.7022230567 -1.1987257525 2.1049664436
F -0.7031410252 0.2850125297 -1.0779052503
F 0.2125275538 -1.5660815382 -0.3067875913
F 0.9432301316 1.8274183735 0.2256845736
F 1.5905432117 0.2163215801 1.5798109463
F 1.9032470310 0.0117746100 -1.9139472423
F 2.9089874317 -1.0430960188 -0.2607661593
F 3.8267479078 1.5463563822 0.5984604455
F 3.0833061688 2.3080950486 -1.3327896247
H 4.4734256733 0.1145852041 -2.2948080052
H 5.2714932374 -0.0656708443 -0.7277808277
H 5.2910857574 2.4493928523 -2.5005760657
H 6.5967697793 1.2597396277 -2.3640255248
H 6.7667441016 1.9442283302 -0.1440111087
