28
CONF81
O -3.0675710054 2.3553641645 0.6631086449
C -2.5662638300 1.0686399960 1.0331146976
C -2.0667569031 0.2627316790 -0.1436556023
O -0.9203277774 0.9189185637 -0.7445863544
C -0.0206203942 -0.0481094363 -1.2501445895
C -0.6220851013 -1.4225693377 -0.9574656954
C -1.5608020846 -1.1414336076 0.2107372244
O -2.5890779342 -2.1210095491 0.2633632508
N 1.3089810177 0.1392356662 -0.5844017366
C 1.4462881604 0.7762793317 0.6153000351
C 2.6417655356 0.9233006507 1.2343956988
C 3.8361017861 0.3998487419 0.6295599645
O 4.9782748012 0.4697058272 1.0846365174
N 3.6071923457 -0.2394942313 -0.5976654372
C 2.4004063493 -0.4205864660 -1.2394268393
O 2.2934392653 -1.0270483229 -2.2996002790
H -3.8650448949 2.2220822144 0.1347333681
H -1.7466738783 1.2475903059 1.7373062360
H -3.3370734215 0.4754565063 1.5491247290
H -2.8608256126 0.1705344759 -0.9017963333
H 0.1574131325 0.1220228252 -2.3147326180
H 0.1366779051 -2.1769979180 -0.7443222548
H -1.2184262803 -1.7483147595 -1.8164777128
H -1.0063930605 -1.1079152373 1.1610255796
H -3.0142804977 -2.0680187749 1.1283835554
H 0.5281794717 1.1714250389 1.0326151880
H 2.7154888128 1.4387740169 2.1820887139
H 4.4120146853 -0.6404117602 -1.0652179616
