39
CONF17
C -2.8062242797 0.3016432063 3.7223521585
O -3.2256705187 0.1113719902 2.3639177818
C -2.2570186114 -0.1211339399 1.4369166518
C -0.8866780421 -0.1748120423 1.7178408382
C 0.0218708015 -0.4233503764 0.6893021666
C -0.4229308633 -0.6078942600 -0.6199321617
C -1.7896868567 -0.5541734413 -0.9020992576
C -2.7130674699 -0.3015765289 0.1243738785
O -4.0537553191 -0.1952280824 -0.1629761491
C -4.7493622080 -1.4555366840 -0.0616314523
O -2.3288965258 -0.7242122002 -2.1398436454
C -1.4214563952 -0.9694478483 -3.2233607974
C 1.5085453024 -0.5012060809 0.9956838350
C 2.3733911651 0.2356627322 0.0127097098
C 3.2958589237 -0.4003963528 -0.7934588497
N 4.0941598171 0.2167505519 -1.6805858335
C 3.9405946703 1.5519951388 -1.7465027510
N 3.0727451228 2.2924880702 -1.0351768412
C 2.2922679085 1.6411369094 -0.1606495183
N 1.4414396851 2.3913313405 0.5913432436
N 4.7765738557 2.2322473529 -2.5923614867
H -2.1589655837 1.1814686540 3.8144019283
H -3.7223506047 0.4591713047 4.2920256421
H -2.2838560287 -0.5845964192 4.1003941082
H -0.5202880748 -0.0306977022 2.7275155974
H 0.3023623991 -0.7882632709 -1.4041701612
H -4.3320853420 -2.1817216411 -0.7689627276
H -4.6814619763 -1.8501539869 0.9588605751
H -5.7931283291 -1.2552016008 -0.3112471093
H -0.8531397750 -1.8921167586 -3.0592378584
H -2.0463868375 -1.0754747316 -4.1104280303
H -0.7316343344 -0.1278947236 -3.3556899847
H 1.8175549403 -1.5540370615 1.0035727228
H 1.6781502184 -0.1207950729 2.0113358586
H 3.4032423249 -1.4836478345 -0.7232916539
H 0.6527225905 1.9346479332 1.0245098238
H 1.2933721116 3.3455515944 0.2987850217
H 5.2223668065 1.6879710796 -3.3142948742
H 4.4945413342 3.1640154616 -2.8537915650
