123
CONF10
C -1.0914117876 4.3292820323 2.5517748374
C -0.0293811376 3.4389123130 1.8873684490
C 0.7015639078 2.6775616243 2.9576420961
C 2.0385461556 2.5393888590 3.1063018686
C 3.0155533324 3.0062922103 2.1532982231
C 4.3619672093 2.8765990260 2.1357839759
C 5.2560869800 2.2612252823 3.1661110491
O 6.2731074373 2.8611889461 3.5213064102
N 5.0316719874 0.9953819810 3.6672882388
C 3.9769129070 0.1117521899 3.3691469414
C 3.2525289699 -0.4613726397 4.3834034711
C 2.0598788077 -1.2761874526 4.1757973948
C 1.4572609249 -1.2605684774 2.9041388865
C 0.1553119993 -1.7581029457 2.7698801822
C -0.4481038503 -2.4521232446 3.8300621545
C 0.1640363069 -2.6321260049 5.0620326122
C 1.4034846660 -1.9918747435 5.2320933019
O 1.9393719730 -2.1294686342 6.4559342991
C -0.4710023507 -3.3889331983 6.1856376951
O -1.7060670135 -2.8755524943 3.5574628374
C -2.1633417350 -2.1388873634 2.3620221016
C -0.8787484790 -1.4655861224 1.8228359179
O -0.9012980102 -0.7317920383 0.8438356912
O -2.7711160462 -3.0015878882 1.4491887570
C -1.9659954493 -3.5460654114 0.4422185621
C -2.1023322804 -3.1485740952 -0.8188528594
C -3.0763549098 -2.1008343527 -1.2862556825
C -2.4263954389 -1.0178123239 -2.1703747377
C -3.2299472078 0.3046134251 -2.1433329962
C -2.9065814371 1.2119179141 -0.9235002447
C -1.9374800132 2.3153983484 -1.4040392336
C -1.3837074515 3.2575009226 -0.3073502143
C -0.6714494346 2.5011838368 0.8352043915
O 0.3613119166 1.6676196167 0.2708749085
C -0.4858704064 4.3197529496 -0.9552979851
O -0.8691102604 1.7569004524 -2.1886668022
C -4.1446400351 1.8351722603 -0.2737175214
O -4.6576483274 -0.0084974733 -2.1269921350
C -5.3519904002 0.0423769630 -3.2747799860
O -4.8980607202 0.3998586710 -4.3457209932
C -6.7638979415 -0.4224014086 -3.0633227731
C -2.1680199118 -1.5038382915 -3.5976753336
O -4.1130512044 -2.7529902143 -2.0469015198
C -5.0865246604 -3.3697996990 -1.2119139865
C -3.1851460678 -1.1199218174 2.8114808589
C 2.2800366850 -0.8273033815 1.7954223752
N 2.1001297798 -1.0436973452 0.5340533893
C 3.3225845539 -0.5645007788 -0.1104455427
C 2.9976599946 0.5073016012 -1.1714641612
C 2.1582103190 -0.0747362704 -2.3006778491
N 2.8513852173 -1.1858656120 -2.9603143855
C 3.1367441429 -2.2518773829 -1.9916853854
C 3.9954545774 -1.7544846791 -0.8361884930
C 2.0501997185 -1.7401091810 -4.0585990468
C 1.7602569437 -0.7708962256 -5.2095654483
C 1.0257983927 -1.5308625262 -6.3171734139
C 3.0378172812 -0.1261956054 -5.7456679569
N 4.2202748915 -0.0276796974 0.9110230938
C 3.5893202765 -0.2019603844 2.0303943812
O 3.5451018400 -0.2203727045 5.6884424578
C 5.1623004425 3.4853599890 1.0131423731
H -0.6430364335 4.9232471166 3.3533978531
H -1.5442893188 5.0194942517 1.8350315067
H -1.8876959516 3.7150891988 2.9885935273
H 0.6823578622 4.0764749574 1.3554024101
H 0.0646773279 2.2375314268 3.7268505352
H 2.3964484785 2.0327314962 3.9983969855
H 2.6056922584 3.5338279150 1.2948679450
H 5.7943355072 0.6653656360 4.2497472528
H 2.7371518172 -1.5765957814 6.5349792167
H -0.5829029845 -2.7504591180 7.0676122194
H 0.1518813786 -4.2395564669 6.4811095810
H -1.4527447623 -3.7601505688 5.8908377028
H -1.2686374769 -4.3132654879 0.7740361296
H -1.5015988607 -3.6540987395 -1.5712030324
H -3.5256341711 -1.6167355614 -0.4081436396
H -1.4596954864 -0.7847257989 -1.7111511006
H -3.0351855577 0.8568506273 -3.0662617978
H -2.4013898568 0.5954579169 -0.1749244303
H -2.5067380854 2.9486316659 -2.1025368990
H -2.2508011373 3.7664157904 0.1280597532
H -1.4029673714 1.8630617122 1.3531090135
H 0.1797870043 0.7455163065 0.5329735382
H -0.3096477229 5.1618231952 -0.2805323317
H -0.9601928544 4.7122992892 -1.8604219931
H 0.4837292989 3.9016788926 -1.2413501208
H -0.1870362404 1.5155180401 -1.5368048705
H -3.8584177180 2.4205147950 0.6048838006
H -4.6701685398 2.4987337471 -0.9705260147
H -4.8479325685 1.0674202342 0.0551522898
H -6.7739466586 -1.5149330278 -3.1479110173
H -7.1265635857 -0.1590391788 -2.0680626909
H -7.4108055583 -0.0063940989 -3.8359323274
H -1.5939993046 -0.7478262217 -4.1435052041
H -1.5896133882 -2.4332315439 -3.6032892025
H -3.1013156926 -1.6811304120 -4.1365762413
H -4.6396070703 -4.1341004985 -0.5596879862
H -5.5956644437 -2.6216421614 -0.5852810931
H -5.8170448143 -3.8466374566 -1.8702128566
H -2.7713114727 -0.4909501043 3.6037909499
H -4.0715878578 -1.6409998956 3.1822828896
H -3.4564330936 -0.4944091037 1.9565448865
H 3.9521916110 0.8721257173 -1.5652598462
H 2.4710975390 1.3387353482 -0.6970763277
H 1.9749818600 0.7178089658 -3.0337212057
H 1.1716015509 -0.3971493512 -1.9095184974
H 3.6773758293 -3.0520320632 -2.5121775085
H 2.2001385249 -2.6912864992 -1.5961367737
H 4.9644244380 -1.4047658641 -1.2062160360
H 4.1688625952 -2.5629788324 -0.1182247454
H 1.0843682552 -2.1348897341 -3.6770333207
H 2.6052197568 -2.5976398180 -4.4658571146
H 1.0877444605 0.0196253667 -4.8494321100
H 0.1178318984 -2.0114174462 -5.9365547960
H 1.6708029567 -2.3106414639 -6.7400422429
H 0.7378163330 -0.8544115492 -7.1280392955
H 2.8138721088 0.5259912124 -6.5964866799
H 3.7384574078 -0.8992650612 -6.0844847006
H 3.5420985464 0.4681241324 -4.9782973538
H 4.2486997881 0.4420176007 5.7753327152
H 5.8277313580 2.7394537007 0.5631644627
H 5.7962890932 4.2979712479 1.3822937421
H 4.4997412338 3.8767197934 0.2382947002
