63
CONF101
C 3.0211951051 1.7349376686 0.9631789995
C 1.6890689329 2.4714700928 1.0604529096
N 0.5601013973 1.5335035920 1.0412829680
C 0.6440699360 0.6284733478 2.1934344825
C 1.9297994963 -0.1926684563 2.1542087278
C 3.1395151570 0.7400344785 2.1170117540
N 4.4064500275 0.0099534618 2.0972484081
C 4.8897409721 -0.8590174958 1.1220327062
C 4.3687977915 -1.3045918956 -0.0870054832
C 5.1389147813 -2.1984716251 -0.8372568168
C 6.3894076767 -2.6348417180 -0.3961408992
C 6.9178335349 -2.1910183710 0.8185110155
C 6.1539723241 -1.3058229680 1.5607693504
N 6.3916632353 -0.6964694295 2.7789023523
C 5.3327444522 0.1183001567 3.1336404394
O 5.2275814155 0.7975014902 4.1533143303
C -0.7034710397 2.2839334478 1.0372689182
C -1.9475373206 1.4172192474 0.8507786335
C -1.8834831643 0.5292586312 -0.3888806659
C -3.1754677066 -0.2719580192 -0.6236696117
C -4.4127826030 0.5769755379 -0.8666448602
C -4.3675895461 1.8152716236 -1.5130421925
C -5.5298878123 2.5410400275 -1.7670274310
C -6.7392851025 2.0059342616 -1.3619799340
C -6.8346445739 0.7864553682 -0.7135888454
C -5.6597108021 0.0813934418 -0.4708632055
F -7.8794194749 2.7079373745 -1.6056927893
C -2.9800482480 -1.2761517227 -1.7487046117
C -2.8807843634 -0.8601744846 -3.0802931273
C -2.6668542943 -1.7747096829 -4.1070882226
C -2.5573176233 -3.1156749347 -3.7773324478
C -2.6493614444 -3.5737061076 -2.4758266547
C -2.8609978559 -2.6382855738 -1.4642275772
F -2.3552271362 -4.0186904112 -4.7756250697
H 3.8459681903 2.4548176765 1.0069557375
H 3.0777230469 1.2161866030 0.0002799300
H 1.5862364491 3.1580984925 0.2123918464
H 1.6774340499 3.0874950477 1.9840584860
H 0.5957443060 1.1975383741 3.1456662433
H -0.2115278829 -0.0537197729 2.1798397078
H 1.9171485861 -0.8410431268 1.2710251669
H 1.9830338534 -0.8349714276 3.0402101604
H 3.1621160513 1.3077716327 3.0555029336
H 3.4016475303 -0.9813914380 -0.4508098093
H 4.7493098661 -2.5577757405 -1.7841375187
H 6.9616178442 -3.3288429863 -1.0029202613
H 7.8883345215 -2.5235998238 1.1712320470
H 7.2105872812 -0.8109940200 3.3548422723
H -0.6514390336 2.9995717691 0.2059205115
H -0.8125284397 2.8783177948 1.9671037008
H -2.1289405472 0.7947314383 1.7358366282
H -2.8050546785 2.0974715782 0.7816135053
H -1.6425964672 1.1313089543 -1.2748699240
H -1.0624520679 -0.1885987005 -0.2834472896
H -3.3649049103 -0.8529302468 0.2878074976
H -3.4172214157 2.2370052687 -1.8236767895
H -5.4984590510 3.5038633009 -2.2657260325
H -7.8021260882 0.4043539012 -0.4058897603
H -5.7144599256 -0.8786012807 0.0357341747
H -2.9765796575 0.1931313236 -3.3270400407
H -2.5905310809 -1.4593688034 -5.1422386744
H -2.5601218473 -4.6332663751 -2.2611381302
H -2.9349411779 -2.9788622578 -0.4352709900
