51
CONF235
C 5.4333128853 -0.8493644806 3.8171823317
C 4.5350826853 -0.5328715378 2.6527450814
C 3.3226944508 0.1394593066 2.8328038848
C 2.4809804447 0.4048863456 1.7562066274
C 2.8278099506 0.0039115074 0.4659522517
C 4.0374095782 -0.6652287789 0.2795315169
C 4.8793575970 -0.9273670400 1.3559577486
C 1.9358023134 0.3224890818 -0.7211377859
C 2.0783450091 1.7820589427 -1.1521705298
N 0.5288156349 0.0485571911 -0.4312789974
C 0.0415860470 -1.2053118150 -0.3388846775
O 0.7198358742 -2.2122452895 -0.5513930724
C -1.4232572572 -1.3208742502 0.1110210421
C -1.5371747995 -1.2594061831 1.6517543405
C -2.9564209154 -1.6269747963 2.0953831680
C -0.5171228146 -2.1730877586 2.3316974578
N -2.2676152603 -0.2901952472 -0.4721046450
C -2.4547790049 -0.2134110484 -1.8140025733
O -1.9773612599 -1.0016093632 -2.6197521324
O -3.2304719285 0.8523772287 -2.1303825685
C -3.5847872345 1.0079196624 -3.5454036056
C -3.8861023786 2.4809923370 -3.7321283221
C -4.7670556087 0.1119275339 -3.8664392081
H 5.3518545535 -1.9069559053 4.0945712346
H 6.4821692692 -0.6600631150 3.5692342880
H 5.1699504241 -0.2531098885 4.6944657141
H 3.0327798010 0.4577759344 3.8309316762
H 1.5405563884 0.9232001614 1.9254922055
H 5.8155827980 -1.4542236057 1.1890768122
H 2.2335379233 -0.3289548739 -1.5510842345
H 1.4631661134 1.9866522481 -2.0340638759
H 1.7738297463 2.4533598679 -0.3415316345
H 3.1225788766 1.9941502440 -1.3943592198
H 4.3205773815 -0.9902671054 -0.7187419446
H -1.7548143371 -2.3098513050 -0.2302689754
H -1.3239085337 -0.2220943084 1.9516529097
H -3.0449724563 -1.5327070624 3.1819425161
H -3.7185622839 -0.9886010250 1.6396634642
H -3.1766595808 -2.6660033215 1.8251298250
H -0.6425071552 -3.2091589893 1.9980631200
H 0.5120134775 -1.8698150174 2.1208046689
H -0.6650380956 -2.1430050157 3.4153782602
H -2.6788974557 0.4190012609 0.1162399587
H -2.7122435169 0.7155216044 -4.1375474320
H -4.1462088971 2.6679651240 -4.7778953887
H -4.7318723826 2.7836431452 -3.1064779887
H -3.0173741911 3.0933052247 -3.4754429111
H -5.0363408642 0.2237694317 -4.9212191845
H -5.6317598066 0.3922406477 -3.2561542943
H -4.5239527417 -0.9377483657 -3.6825618863
H -0.0843748551 0.8254680842 -0.2297775348
