39
CONF216
C 7.6394633562 0.8702700030 -2.5795428751
C 6.3895483634 1.3490895905 -1.8435255414
C 6.2417268932 0.7144869267 -0.4604773505
C 4.9794521404 1.1841116281 0.2633849776
C 4.8661521932 0.7230545373 1.7241298592
C 4.8373228425 -0.8076866005 1.8532702751
C 4.6639582493 -1.3216021947 3.2826508314
C 3.6829410058 1.3940224254 2.4086324045
O 2.4270827019 0.8748427003 1.8577178507
C 1.7140169219 1.6671703493 1.0505500870
O 1.9609808474 2.8219721989 0.7806937389
C 0.5680941256 0.8999866695 0.4607098480
C 0.8621727406 -0.3279214500 -0.1235449410
C -0.1197812740 -1.0465164179 -0.7858760485
C -1.4278314393 -0.5596019400 -0.8607175867
C -1.7376238494 0.6668436306 -0.2469437633
C -0.7371709239 1.3960657193 0.4080072214
Br -1.1562881436 3.0174006780 1.3037182546
Br -3.5123142061 1.3273707177 -0.3061705047
Br -2.7566638810 -1.5483487887 -1.7730562707
Br 0.3902864777 -2.6984914320 -1.5733189320
H 7.7279815067 1.3375910566 -3.5653456238
H 8.5437332841 1.1120019926 -2.0099315084
H 7.6165007794 -0.2158026439 -2.7227772244
H 6.4178194710 2.4415930555 -1.7378910876
H 5.4973199054 1.1192742443 -2.4412797896
H 6.2336648469 -0.3768080730 -0.5728248300
H 7.1236392682 0.9597014518 0.1488206953
H 4.0976811081 0.8381337359 -0.2956687687
H 4.9504473476 2.2817960154 0.2418022648
H 5.7477747689 1.0943885136 2.2707251382
H 5.7754664075 -1.2010251965 1.4483513249
H 4.0362069650 -1.2049078364 1.2159096063
H 4.7998118327 -2.4065804113 3.3202946811
H 5.4008725788 -0.8677289821 3.9552928761
H 3.6676161093 -1.1017041297 3.6784535467
H 3.7075690016 2.4776842530 2.2756239749
H 3.6372866819 1.1573169959 3.4732338183
H 1.8738414075 -0.7112762755 -0.0737278498
