44
CONF3
C 4.4566396034 0.6735882891 4.0298553291
C 3.6715249556 0.2085993876 2.8481580552
N 3.0425006778 1.1505059958 2.1259726397
C 2.3394824176 0.6741740124 1.0953676100
N 2.2363885865 -0.6156039386 0.7493755577
C 2.8998421965 -1.4533533890 1.5509871667
N 3.6345031846 -1.1060437544 2.6098780046
O 2.8548594012 -2.7568806907 1.3018498332
C 2.0710458622 -3.1965850021 0.1702525083
N 1.6776824732 1.6228133879 0.3431977595
C 0.8673616401 1.5094891760 -0.8029630258
O 0.4317265467 2.5044622325 -1.3452801654
N 0.5876847051 0.2155967216 -1.1824642857
S -0.0645030606 -0.1849625627 -2.7151826356
O 0.7099432079 0.4611471982 -3.7705348449
O -0.1508495517 -1.6491737619 -2.6387116917
C -1.7105501088 0.5447534996 -2.6907203783
C -1.9752383072 1.4620577393 -3.7048123492
C -3.2431091019 2.0151634192 -3.8135781191
C -4.2330763064 1.6467922932 -2.9091779335
C -3.9492759474 0.7382821167 -1.8975357104
C -2.6831677127 0.1634887887 -1.7559409027
C -2.4384219114 -0.7546435732 -0.5841862894
C -2.2562604720 0.0692054681 0.7003546596
C -1.8762372584 -0.7844077162 1.8814071424
F -0.6760361326 -1.3980153700 1.6963560466
F -1.7720119645 -0.0500564038 3.0130361637
F -2.7840003071 -1.7620391844 2.1178807936
H 5.1826982770 -0.0826879474 4.3276092821
H 4.9458729650 1.6247483147 3.8118718230
H 3.7693109233 0.8427156502 4.8670166169
H 2.1862327870 -4.2795262015 0.1562446778
H 1.0190973567 -2.9295158360 0.3029503926
H 2.4516683756 -2.7627371466 -0.7585415230
H 1.8217134896 2.5783763066 0.6396068267
H 1.0718620152 -0.5411296411 -0.6782355473
H -1.1840953407 1.7349777113 -4.3923272706
H -3.4532711951 2.7298695239 -4.6015260721
H -5.2299047788 2.0677567269 -2.9898500475
H -4.7281955712 0.4567141235 -1.1937687307
H -1.5690018852 -1.3899951960 -0.7528740475
H -3.3026827651 -1.4159584406 -0.4665045600
H -1.4712831886 0.8205096050 0.5731227852
H -3.1784697859 0.5975280470 0.9613082370
