41
CONF39
C 4.8969711401 0.5518335949 -3.1075425587
C 3.7114136344 0.9180815504 -2.2805136186
N 2.5116308732 0.4886196744 -2.7017693341
C 1.4926870170 0.8049425433 -1.8947853525
N 1.5860830313 1.5032635608 -0.7565439192
C 2.8258400333 1.8969060656 -0.4576573034
N 3.9267962594 1.6301021715 -1.1670182386
O 3.0330575097 2.6281028424 0.6310112391
C 1.8753230304 3.0408728943 1.4014387280
N 0.2553627370 0.3644049687 -2.3120426668
C -1.0054385494 0.4386458131 -1.7128579149
O -1.9822919583 -0.0279440402 -2.2769896436
N -1.0457512626 1.0482658549 -0.4821867662
S -2.4272492442 1.0026096389 0.5115264629
O -3.4914235032 1.7661270727 -0.1425506474
O -1.9159161865 1.4204253362 1.8241386077
C -2.9577588307 -0.7141709425 0.6053219991
C -4.0927510078 -1.0605074557 -0.1207994244
C -4.6272018207 -2.3366659683 0.0146405703
C -4.0437069587 -3.2452671630 0.8914626835
C -2.9208819323 -2.8850609458 1.6279158523
C -2.3498300610 -1.6196916671 1.4838263308
C -1.1253085973 -1.3487888399 2.2995563554
O -1.0704231399 -1.5320369608 3.4964573790
O -0.0909071711 -0.9766044357 1.5355795502
C 1.1537678283 -0.7466247878 2.2480724673
H 4.6260774493 0.4911744446 -4.1628318456
H 5.2489913043 -0.4393277703 -2.7957342189
H 5.7094094068 1.2632179159 -2.9554796696
H 1.2016012369 3.6355539274 0.7797792732
H 2.2819567549 3.6428600467 2.2125105328
H 1.3499141499 2.1705738837 1.8000201409
H 0.2495324740 -0.1191262531 -3.2016123097
H -0.1584214455 1.3171451819 -0.0401800009
H -4.5545508731 -0.3333260501 -0.7767748429
H -5.5068763809 -2.6113524123 -0.5570652300
H -4.4652416573 -4.2378692614 1.0087701871
H -2.4657445371 -3.5881769931 2.3173757709
H 1.0127995577 0.0296323536 3.0036098162
H 1.8641797911 -0.4271725108 1.4867759247
H 1.4842793852 -1.6730065603 2.7231457086
