59
CONF258
C 4.2250836741 1.4710511894 4.4650367368
C 4.2293198611 3.0266099051 4.4322851378
C 4.5710139068 3.4066352201 2.9789289279
C 4.1075058981 2.2078855343 2.1372138711
C 4.5425948286 1.0232005456 3.0236739328
C 4.7317677951 2.1905102261 0.7494227618
C 4.2228953611 1.0921306514 -0.1457601236
O 4.8908076712 0.6464269934 -1.0691406680
N 2.9373019478 0.5994100943 0.0963529851
C 2.0752888391 1.1109697114 1.0707727362
O 0.9383654668 0.6715015989 1.1832669087
C 2.5901759286 2.2255575146 1.9427308280
C 2.4227603546 -0.4582166445 -0.7947409702
C 1.7248052021 0.1377499898 -2.0145748662
C 1.2287197032 -0.9324516944 -2.9887439690
C 0.2889131456 -1.9682311528 -2.3635563997
N -0.7893853979 -1.3752908510 -1.5654157021
C -1.7348296592 -0.6243502847 -2.3978124479
C -2.8206424709 0.0078753655 -1.5307659607
N -3.5155209106 -1.0247905989 -0.7615103180
C -2.5832351437 -1.7920126298 0.0653821409
C -1.4998016118 -2.4133929051 -0.8115708700
C -4.7071930995 -1.5503125065 -1.1759604159
N -5.3840856064 -0.8831114222 -2.1433895323
C -6.5698759169 -1.3812068444 -2.4884925662
C -7.1134519373 -2.5243148800 -1.9136691284
C -6.3346345567 -3.1364295840 -0.9383290852
N -5.1434517103 -2.6770071500 -0.5598484305
H 3.2453523532 1.0972662152 4.7780108287
H 4.9573136823 1.0722819601 5.1721915338
H 3.2451579400 3.4172060155 4.7091702845
H 4.9501469183 3.4521643188 5.1355322897
H 5.6569135823 3.5091639404 2.8597212162
H 4.1094675787 4.3457453524 2.6558184629
H 5.6229258784 0.8814803608 2.8996628851
H 4.0539711491 0.0801420106 2.7545006461
H 4.5170276375 3.1379136445 0.2324150849
H 5.8201320778 2.0892961314 0.7951304087
H 2.0453080620 2.1653018709 2.8882486327
H 2.2921345875 3.1672027810 1.4585039331
H 1.7290750325 -1.0629934455 -0.2087531843
H 3.2708663654 -1.0764101689 -1.0968478746
H 0.8838527124 0.7504047199 -1.6711475118
H 2.4237880216 0.8022965071 -2.5354778470
H 2.0851621210 -1.4795832318 -3.4029359911
H 0.7435718141 -0.4389818154 -3.8382972445
H 0.8622539417 -2.6223338048 -1.6948675650
H -0.1156332875 -2.6161133168 -3.1663594046
H -1.2019136576 0.1719556235 -2.9279227639
H -2.2097266984 -1.2784396457 -3.1579192902
H -3.5322060907 0.5550165155 -2.1470617687
H -2.3571222934 0.7033405428 -0.8190853630
H -3.1206684487 -2.5630571419 0.6153872119
H -0.7799251233 -2.9413593052 -0.1745801651
H -1.9678866019 -3.1597447603 -1.4859261215
H -7.1089868925 -0.8400678374 -3.2657510843
H -8.0782118983 -2.9159220196 -2.2103672081
H -6.6801802719 -4.0408763552 -0.4381530363
H -2.1209238982 -1.1003752899 0.7816430276
