24
CONF5
C -1.0820755779 -1.9513641381 1.8423022972
N -1.5283585805 -0.8513644309 0.9928051760
C -0.7009281414 0.0512541582 0.3416950653
C -1.5209483500 0.9533257785 -0.3195740816
C -2.8635262839 0.6012677377 -0.0711883377
C -2.8280545793 -0.5202637599 0.7395248984
Br -4.2619796925 -1.5069210655 1.4236696632
Br -4.3992413417 1.4587313272 -0.7163645772
Br -0.9097678411 2.3718537717 -1.3876851505
C 0.7411474878 -0.0330548014 0.3653057742
C 1.5815461451 -0.9505421381 -0.2474084176
C 2.9156725791 -0.5906102006 0.0330453529
C 2.8547389559 0.5512660978 0.8133379043
N 1.5477167495 0.8870261536 1.0180946864
C 1.0752131023 2.0080519652 1.8248744980
Br 4.2660671031 1.5573682423 1.5158375358
Br 4.4711739534 -1.4616190542 -0.5428254643
Br 1.0037095474 -2.3953737494 -1.2986327046
H -1.5330774862 -1.8621182555 2.8335589070
H -1.3586460434 -2.9105253602 1.3963765534
H 0.0031076064 -1.8921341849 1.9307604683
H 1.4947633278 1.9442795238 2.8317911068
H -0.0122859591 1.9509125130 1.8803198372
H 1.3661410411 2.9556038513 1.3635261182
