55
CONF251
C 2.7133954546 0.7134289616 -0.2915779730
C 3.4496343864 1.9888281217 -0.6721287120
N 3.9367604463 1.9099546097 -2.0500792167
C 2.8013827485 1.6865424469 -2.9494620186
C 2.0704655999 0.4092666333 -2.5694734187
N 1.5816183735 0.4851049273 -1.1916553082
C 0.8316130991 -0.7196863116 -0.8496997060
C 0.0869933551 -0.6026522818 0.4859752660
C -0.8390853620 -1.7617227936 0.6680330041
C -2.1011935328 -1.7537877717 1.1421536012
C -2.9068769284 -2.9910573327 1.1452081207
C -2.3542599158 -4.2281194269 1.4976183670
C -3.0983887097 -5.3973423380 1.4224620328
C -4.4283101182 -5.3491076650 1.0111415444
C -5.0131949239 -4.1295488991 0.6978850804
C -4.2584658434 -2.9579430438 0.7697422874
S -5.0482098953 -1.4327055501 0.3134925222
C -4.1224727664 -0.2862385036 1.2929829781
C -2.7812374260 -0.5415872189 1.6325985025
C -2.1272444670 0.3814577767 2.4504407289
C -2.7517514860 1.5584591542 2.8482175044
C -4.0617003760 1.8261457359 2.4585480194
C -4.7491938025 0.8943566208 1.6952501720
C -1.9984302658 2.5030786889 3.7350425144
F -0.7244384849 2.6876245140 3.3029910068
F -1.9058306713 2.0344855628 5.0074906017
F -2.5790837909 3.7209208666 3.8049612112
C 4.7160899960 3.0941309307 -2.4255235152
C 5.6173728289 2.7821204119 -3.6160058656
O 6.4215786366 1.6401054615 -3.3530012525
H 2.3481566089 0.8204787813 0.7350575369
H 3.4252863604 -0.1377930038 -0.3147493814
H 2.7703688273 2.8524794753 -0.5314903534
H 4.3071991465 2.1208210353 -0.0022073850
H 2.0915206690 2.5362719638 -2.9119424233
H 3.1643597858 1.5953312141 -3.9788928240
H 1.2131435112 0.2732938377 -3.2395188280
H 2.7526124499 -0.4538584470 -2.7131766181
H 0.0890574952 -0.8839453378 -1.6410273543
H 1.4834980929 -1.6190734804 -0.8304497027
H -0.4540885678 0.3490662565 0.5101268700
H 0.8115175956 -0.5783101220 1.3127196106
H -0.4602515356 -2.7185094085 0.3088223104
H -1.3252892384 -4.2586807453 1.8416573504
H -2.6457847928 -6.3442622683 1.6967844629
H -5.0194658520 -6.2571545236 0.9574083712
H -6.0574259344 -4.0804317887 0.4060857060
H -1.1160850091 0.1718230136 2.7801066889
H -4.5495391062 2.7426866943 2.7681039683
H -5.7828087212 1.0754419934 1.4194800523
H 5.3538164482 3.3590860819 -1.5735284791
H 4.0722348939 3.9671073511 -2.6488048495
H 5.0208324678 2.6389457324 -4.5322244780
H 6.2895178227 3.6283826044 -3.7959350080
H 5.8400800481 1.0362908026 -2.8647385135
