47
CONF152
C 3.9672530349 1.0786445926 5.1038370018
C 4.0141997441 0.1032050525 3.9202205692
C 5.3236511906 0.2590686850 3.1356965328
C 2.8066640173 0.2690791768 3.0206216101
C 1.8998216311 -0.7790541352 2.8433942817
C 0.7825001161 -0.6416565506 2.0230727756
C 0.5808379881 0.5662895664 1.3770873972
C 1.4560045220 1.6324458343 1.5266346191
C 2.5658880021 1.4739751007 2.3502633273
O -0.5773304456 0.7380968722 0.5894101186
P -0.5361967038 0.3464277061 -0.9650234105
O 0.1838554216 -0.8951183126 -1.3187559918
O 0.0092829210 1.7048364618 -1.6233724120
C 0.3886234023 1.7125299817 -2.9806597395
C -0.5533119922 2.0682747387 -3.9351111295
C -0.1570041001 2.1264203006 -5.2694593205
C 1.1572702827 1.8332678740 -5.6266333229
C 2.0838585757 1.4802140910 -4.6472713994
C 1.7033771615 1.4170140755 -3.3092021961
O -2.0928579322 0.4098832501 -1.3524021399
C -2.9111824478 -0.7109044397 -1.1062206193
C -3.6049700610 -0.7791646742 0.0932965132
C -4.4539715384 -1.8626067610 0.3085938916
C -4.5964150091 -2.8491218306 -0.6647290845
C -3.8892730267 -2.7548558716 -1.8619308827
C -3.0362738205 -1.6784120862 -2.0922444887
H 4.8126590381 0.9003873762 5.7764528370
H 3.0403857697 0.9613167555 5.6738468003
H 4.0255776668 2.1158571913 4.7562470196
H 5.3694758270 -0.4465388512 2.3002914373
H 5.4173967102 1.2729568676 2.7317640280
H 6.1823212996 0.0767622945 3.7902449523
H 2.0673263428 -1.7225503219 3.3553794845
H 0.0782568043 -1.4552274783 1.8844838184
H 1.2655593168 2.5674962047 1.0105900985
H 3.2504673676 2.3083743182 2.4700838605
H -1.5701302280 2.2968788374 -3.6348326673
H -0.8804929751 2.4042359172 -6.0291031896
H 1.4601155268 1.8810568654 -6.6674387842
H 3.1086684180 1.2521465662 -4.9219186871
H 2.4062576138 1.1433851834 -2.5296519137
H -5.0053630220 -1.9312544895 1.2407753545
H -5.2595613504 -3.6902694807 -0.4915600905
H -3.9990452668 -3.5208302154 -2.6228007789
H -2.4751041322 -1.5842737636 -3.0157134072
H 3.9783166635 -0.9174532560 4.3208385137
H -3.4830414940 0.0021421413 0.8356021140
