45
CONF59
C 7.5669071828 -0.9186360675 4.6135893144
C 7.5372696818 -1.2917655071 3.3363290045
C 7.4087673912 -0.2836553748 2.2628507594
O 7.3349271081 0.9125304413 2.4153404153
O 7.3903282322 -0.9083625312 1.0472485813
C 7.2183149330 -0.0745138587 -0.1153695855
C 5.8934041951 -0.3987756289 -0.7951925741
C 4.6955026591 0.1927869473 -0.0757862549
C 3.3582315442 -0.0787192002 -0.8322066688
C 2.0545000184 0.2782352053 -0.0389601189
C 0.7872621489 0.4051111818 -0.9584883098
C -0.5627216097 0.3177724757 -0.1601686095
C -1.7874486314 0.8856170931 -0.9633081633
C -3.1694538197 0.4089062537 -0.3886863932
C -4.3728048444 1.2949981392 -0.8692620046
C -5.7624101944 0.5955331643 -0.6831759114
C -6.9817204215 1.5729964108 -0.7407813747
F -7.0236807388 2.3542794131 0.3430073458
F -8.1079661570 0.8488678851 -0.7887825426
F -6.9129981945 2.3418944946 -1.8365402155
F -5.9267598986 -0.3198131474 -1.6612096663
F -5.7966596012 -0.0255930441 0.5188904283
F -4.3707070703 2.4482321085 -0.1638956195
F -4.2138420615 1.5795787366 -2.1816873785
F -3.3869403791 -0.8649460645 -0.7852790289
F -3.1195216557 0.4531693454 0.9612994236
F -1.7446711148 2.2359865291 -0.9198506526
F -1.6942269485 0.4773777409 -2.2485392758
F -0.8065150927 -0.9790510945 0.1356300755
F -0.4403473095 1.0214939005 0.9866515787
F 0.8070439116 -0.5907552725 -1.8731428892
F 0.8350915656 1.5960797063 -1.5976577079
F 1.8275779054 -0.6966485232 0.8722320647
F 2.2313014705 1.4519445414 0.6032102256
F 3.3117562291 -1.3994467342 -1.1458804305
F 3.3800994584 0.6357619287 -1.9887509025
F 4.8450380584 1.5428622403 0.0447629681
F 4.5659202439 -0.3252772775 1.1831321500
H 7.5000121731 0.1322856842 4.8782434039
H 7.6552747366 -1.6471510275 5.4119092420
H 7.5975209745 -2.3319440854 3.0332023363
H 8.0384436416 -0.3222810858 -0.7951085248
H 7.2849315547 0.9783484923 0.1699106466
H 5.7651987746 -1.4811371925 -0.8739972102
H 5.9032295602 0.0166091836 -1.8087030795
