46
CONF123
C -2.0005751822 0.7326111857 0.4844945090
C -2.2018469787 -0.7279850349 0.1574027593
C -3.0378239652 -1.1459582283 -1.0264238133
C -1.5115219763 -1.3486187053 -1.0580685352
C -0.6311311371 -0.5422109885 -1.9179323617
O -0.8708750115 0.5412048130 -2.4151446383
O 0.5608237425 -1.1814039902 -2.0704963160
C 1.5932604657 -0.4425229335 -2.7548713174
C 2.2344104067 0.6040764955 -1.8759105440
C 1.9644623105 0.6710001227 -0.5112040005
C 2.6019224405 1.6363017817 0.2662095887
C 3.5031195485 2.5349551318 -0.2976123262
C 3.7601502156 2.4615677397 -1.6630248227
C 3.1335143315 1.5034156794 -2.4540109838
O 2.3339221226 1.8070605564 1.6104978958
C 1.8571966053 0.7448972543 2.3642164695
C 0.7952548337 1.0081047217 3.2228760079
C 0.3326692543 -0.0026974050 4.0618620847
C 0.9220594234 -1.2644684208 4.0354440161
C 1.9887806501 -1.5103460565 3.1716566516
C 2.4686192190 -0.5066173363 2.3352083439
C -3.7041418271 -0.1690215267 -1.8904265322
C -4.7639152193 -0.4299734649 -2.6560806900
Cl -5.5383333585 0.8020727653 -3.6226248379
Cl -5.5117127454 -1.9989717589 -2.8027690684
C -2.2598007853 -1.6174411075 1.3797576115
H -2.8570678732 1.0974718674 1.0617819769
H -1.1037443022 0.8443676884 1.1036457471
H -1.8806307555 1.3610263656 -0.3978342913
H -3.5669244869 -2.0864569143 -0.9073987082
H -1.1814186410 -2.3732905718 -0.9258802816
H 1.1864113933 0.0140695556 -3.6622136946
H 2.3282545910 -1.2004482125 -3.0404554681
H 1.2645566804 -0.0170761751 -0.0517685485
H 3.9816372488 3.2791473987 0.3299928814
H 4.4582841851 3.1609602158 -2.1122778998
H 3.3403618878 1.4535570818 -3.5190990402
H 0.3446557947 1.9952201299 3.2266869995
H -0.4977393664 0.1982043275 4.7315914211
H 0.5546925829 -2.0521046834 4.6850689837
H 2.4600489756 -2.4881012161 3.1528051553
H 3.3046409671 -0.6895258611 1.6682476311
H -3.3341189500 0.8488544443 -1.9157088156
H -3.0779560789 -1.2992389243 2.0354461882
H -1.3227976921 -1.5412005710 1.9430414603
H -2.4196322417 -2.6644672298 1.1083267389
