48
CONF14
C -2.5742685339 1.7326423932 -1.5990596820
C -3.0043630358 0.9686165938 -0.3476211612
C -3.5666914109 1.9145705333 0.7509708731
C -4.7592789767 1.1486531152 1.3098507402
N -5.3125152024 0.5352946483 0.0974355456
C -4.1771801627 -0.0405298501 -0.6120382689
N -3.6989465521 -1.3495643977 -0.0838454625
C -2.3618014213 -1.2476980305 0.2647565799
C -1.9078133679 0.0761783977 0.1778236383
C -0.6129627057 0.4057480446 0.5303847587
C 0.2340443309 -0.6194917108 0.9487154149
C -0.1865620531 -1.9387604579 1.0092558370
C -1.4989438633 -2.2713480435 0.6645534405
O 1.5393168761 -0.3094638847 1.3693636962
C 2.4646635356 -0.0867730198 0.3756424958
O 2.2266721523 -0.1775029688 -0.8119683308
N 3.6512094696 0.2374182455 0.9611012243
C 4.8730668002 0.5397960169 0.3374261007
C 5.0428177782 0.6071553429 -1.0503424612
C 6.2968473664 0.9190707672 -1.5701156477
C 7.3840521143 1.1664178153 -0.7372225797
C 7.2077880545 1.0998481843 0.6439366926
C 5.9655911367 0.7894247621 1.1801869957
C -4.1646315286 -2.5798294570 -0.7114613952
C -6.4414547116 -0.3537838712 0.3318936735
H -1.7949625984 2.4603199324 -1.3490819745
H -2.1782629958 1.0510136794 -2.3581597173
H -3.4273090237 2.2748112460 -2.0208393695
H -2.8116547151 2.1538020149 1.5039751039
H -3.9088925218 2.8478341448 0.2915229898
H -5.5069916390 1.7917315575 1.7866066359
H -4.4286156290 -0.1576669783 -1.6767293938
H -0.2468146089 1.4266578292 0.4701612543
H 0.5117828259 -2.7067106612 1.3259593394
H -1.8286673955 -3.3032690838 0.7153420102
H 3.6510437785 0.2472126636 1.9714897264
H 4.2088568514 0.4189826740 -1.7109153700
H 6.4172213309 0.9685038325 -2.6480834736
H 8.3549857370 1.4083036838 -1.1564993137
H 8.0418551299 1.2897735185 1.3122707767
H 5.8338389144 0.7382208452 2.2575444588
H -3.5646269504 -2.8440967990 -1.5977448444
H -4.1185601035 -3.4128161279 -0.0019193417
H -5.2055458497 -2.4638618503 -1.0177768530
H -7.2456884403 0.2088311005 0.8177849520
H -6.1882786162 -1.2144711311 0.9762155600
H -6.8225259549 -0.7344821825 -0.6225382123
H -4.4374447913 0.3905436294 2.0496936756
