29
CONF7
C -2.2516319321 -3.1120676215 2.5942973270
C -1.7054512942 -1.8578846748 2.8650362815
C -1.1741025645 -1.0924796490 1.8308789375
C -1.1811607647 -1.5710670995 0.5178123468
C -1.7274698335 -2.8289920479 0.2554174139
C -2.2629419518 -3.5963288735 1.2878208275
C -0.5653024128 -0.7578851287 -0.5817769875
O 0.8517916352 -1.0070080588 -0.5718198222
C 1.5368780651 -0.2707874054 -1.5971139197
C 1.5087259500 1.2190870378 -1.3608918887
C 2.0819683770 1.7506659149 -0.2011267671
C 2.0426023686 3.1195302978 0.0429355000
C 1.4313090886 3.9759999514 -0.8737038704
C 0.8593168309 3.4552968351 -2.0314044224
C 0.8957981577 2.0820129396 -2.2702492509
H -2.6702379650 -3.7082835598 3.3993038291
H -1.6984635247 -1.4757158600 3.8812977303
H -0.7518963317 -0.1125409057 2.0389653276
H -1.7359717500 -3.2058430571 -0.7639321469
H -2.6899833104 -4.5711261568 1.0725961535
H -0.7578543598 0.3128731462 -0.4208994800
H -0.9817050575 -1.0428389512 -1.5600073278
H 1.1050730671 -0.5040636326 -2.5819872431
H 2.5665539001 -0.6420205274 -1.5704388443
H 2.5588505187 1.0836912013 0.5123692092
H 2.4928649898 3.5220405262 0.9453894617
H 1.4020534085 5.0446067347 -0.6841689146
H 0.3793709009 4.1164923486 -2.7465963097
H 0.4410163977 1.6746358789 -3.1697032628
