53
CONF172
C -1.2264488631 4.6019034609 -1.6953751994
C -1.1729666807 4.5073033879 -0.1839482818
O -0.9977470270 3.1281258923 0.2315379287
C 0.2688081198 2.6473465535 0.2668272102
O 1.2512497781 3.3478155805 0.0430879599
C 0.2815084458 1.2305573320 0.6046794680
C 1.4607328173 0.5459189434 0.6195161062
N 1.4869885845 -0.7618769423 1.0191648256
C 0.4182922156 -1.4093621754 1.5970952900
C -0.8018988966 -0.7949464790 1.6109930436
C -1.0361329549 0.5072533816 0.8516931886
C -1.7562266753 0.2450172647 -0.4714318195
C -1.1243710526 -0.5703763352 -1.4196293210
C -1.6934328677 -0.8537352390 -2.6536042511
C -2.9367752708 -0.3156722196 -2.9771421867
C -3.5937875717 0.4967962277 -2.0616109338
C -3.0027602931 0.7664529151 -0.8282350573
Cl -3.9188508277 1.8093892324 0.2614384879
C -1.9906301592 -1.3153610611 2.2763431264
O -3.0942388913 -0.7928627182 2.1796600284
O -1.7858803317 -2.4180177641 3.0408000815
C -2.9642970191 -2.9465858024 3.6867822757
C 0.7760504352 -2.7493634981 2.1701677156
C 2.8255376177 1.1155978130 0.2592346562
O 3.8145551356 0.1012112820 0.1763244317
C 3.8509582466 -0.5584283501 -1.1012246184
C 4.5073979497 -1.9088952588 -0.9077559681
N 3.6478258037 -2.7765382308 -0.0821867068
H -1.4231064551 5.6372714446 -1.9908966430
H -2.0282808022 3.9705388365 -2.0902232746
H -0.2773449324 4.2895872608 -2.1393204471
H -2.1226808432 4.8049302531 0.2668612668
H -0.3658303690 5.1154456229 0.2331272003
H 2.3732870008 -1.2650945040 0.9350768489
H -1.6842267049 1.1397274092 1.4593405497
H -0.1533351343 -0.9894765780 -1.1710544203
H -1.1697920590 -1.4900654506 -3.3596837441
H -3.3988164799 -0.5241194947 -3.9366530401
H -4.5624995184 0.9231637998 -2.2975112220
H -2.6228171138 -3.8261167719 4.2326671201
H -3.3867661089 -2.2100662530 4.3751913042
H -3.7165407924 -3.2248987977 2.9441718006
H 1.7665176715 -3.0507257489 1.8222913860
H 0.7912149853 -2.7067984629 3.2630921525
H 0.0471902257 -3.5084801406 1.8861053561
H 2.7585841737 1.6876002221 -0.6721826836
H 3.1399663735 1.8108028674 1.0445399885
H 2.8296185545 -0.6871564682 -1.4936511367
H 4.4181326787 0.0546738794 -1.8162739511
H 4.7353741998 -2.3287912133 -1.8999113462
H 5.4611117683 -1.7628047589 -0.3879889035
H 4.1830779323 -3.5638521385 0.2671987499
H 2.9145019083 -3.1739603829 -0.6623263027
