53
CONF38
C 1.3400282746 2.0991260650 -0.7659959461
C 2.6406862697 1.3092084489 -0.7700622008
N 2.7496250064 0.4893684009 -1.9813997226
C 1.5864503770 -0.4006651789 -2.0683573066
C 0.2914069061 0.3949657456 -2.0624286983
N 0.1990791755 1.1883400004 -0.8386318336
C -1.0885401837 1.8722382566 -0.7254856918
C -1.3519807633 2.4113657593 0.6836341178
C -1.0030887340 1.3901447208 1.7691416720
N -1.6268683959 0.0864231377 1.5104158915
C -3.0283394795 -0.0131002165 1.4959720508
C -3.8333173734 0.8772497692 2.2190062024
C -5.2210370396 0.7739903896 2.1778912616
C -5.8359423166 -0.2355218797 1.4438529833
C -5.0488354738 -1.1432231104 0.7387607026
C -3.6630082405 -1.0171039186 0.7451655749
S -2.6755172796 -2.0727880454 -0.2934854419
C -1.2281923660 -2.1862024353 0.7315876676
C -0.8442457116 -1.0717643252 1.4997422088
C 0.3424905583 -1.1592602262 2.2426850014
C 1.1312197382 -2.2970916648 2.1407800415
C 0.7690210076 -3.3942608094 1.3737774715
C -0.4424438442 -3.3324458972 0.6891800205
Cl 2.6456082498 -2.3464211517 3.0431063445
C 3.9810075020 -0.3044934915 -1.9908345068
C 5.2596582299 0.5100227931 -2.1285312797
O 5.3065287852 1.3093183703 -3.3174296210
H 1.3387984079 2.8156856239 -1.6126824689
H 1.2891365945 2.6809616384 0.1609283457
H 2.6818203150 0.6764453138 0.1418262528
H 3.4787435538 2.0122105294 -0.7271555320
H 1.5689649835 -1.1170272411 -1.2196892863
H 1.6552784913 -0.9824898694 -2.9951745648
H -0.5558919910 -0.3008197341 -2.0964536683
H 0.2450777450 1.0321876000 -2.9691965785
H -1.8659474217 1.1375143552 -0.9701607815
H -1.1857704074 2.6994631828 -1.4559525429
H -2.4032948287 2.7125193472 0.7433776694
H -0.7617567552 3.3127094214 0.8845351070
H -1.2553197943 1.7740834157 2.7661754728
H 0.0746731723 1.2357828928 1.7456760918
H -3.3760527648 1.6590958204 2.8134030270
H -5.8203287340 1.4862010553 2.7360973678
H -6.9169455178 -0.3217169224 1.4176065158
H -5.5091186990 -1.9366621776 0.1577325233
H 0.6524245397 -0.3501829991 2.8913893534
H 1.3999414527 -4.2724081902 1.3113210783
H -0.7605153413 -4.1768601558 0.0856318944
H 4.0723448949 -0.9215798407 -1.0719148228
H 3.9223530263 -1.0031276926 -2.8369232890
H 5.3816143023 1.2086810574 -1.2957471834
H 6.1076870443 -0.1902478879 -2.0951021073
H 5.1906319483 0.7173493307 -4.0716051656
