19
CONF22
C -2.9397877632 -0.0974607913 -1.0434601083
C -1.7565673983 0.1994671636 -0.1725429296
C -1.8464652704 0.7867613861 1.0260758786
C -0.4415252564 -0.2157907103 -0.7347176158
O -0.3211021409 -0.7768727335 -1.8103321608
O 0.6049669203 0.0884973297 0.0562014969
C 1.9145646596 -0.3174714722 -0.4261063649
C 2.9053817359 0.0720447247 0.6441929294
O 2.7126226598 -0.6577281390 1.8595558851
H -3.0105086460 -1.1706802368 -1.2486184454
H -3.8613803139 0.2338146591 -0.5613331046
H -2.8440287733 0.4040692390 -2.0121637152
H -0.9705412143 0.9852666554 1.6325284531
H -2.8135722463 1.0799432710 1.4235381020
H 2.1322118551 0.1989836219 -1.3675657045
H 1.9135539034 -1.3988474092 -0.5959368125
H 3.9106719380 -0.1708915829 0.2863744974
H 2.8563448774 1.1554095955 0.8238536732
H 1.8551613730 -0.3985148672 2.2204559455
