40
CONF221
C -5.3712928730 0.0463841813 1.0723834229
C -4.7576476558 -1.3142539989 1.3184580061
O -3.3207550423 -1.3252995503 1.0469201910
P -2.7658623040 -1.3129750936 -0.4654105213
S -3.7365579130 -2.2987849189 -1.8169865092
O -2.5998786421 0.2805590279 -0.6691587133
C -2.1352661050 0.8080190202 -1.9535041969
C -3.2836490146 1.5021355237 -2.6489132063
S -0.8111250117 -2.0734449535 -0.2359618235
C -0.1100920858 -0.8104792952 0.9754714866
C -0.2067391582 -1.4003280061 2.3717007032
Cl 0.4180742960 -0.2002694013 3.5953305906
N 1.2240877058 -0.4468167078 0.5878393007
C 1.5400786179 0.8195677694 0.0527375975
O 0.7484877007 1.7162851400 -0.1327670735
C 2.9983487126 0.7793654415 -0.2192660147
C 3.8332643978 1.7591776439 -0.7245107956
C 5.1822581490 1.4322170614 -0.8802383024
C 5.6624861122 0.1655096314 -0.5400791519
C 4.8105928878 -0.8177744799 -0.0316534878
C 3.4777867532 -0.4833065941 0.1216906448
C 2.3435141672 -1.3005209130 0.6227487752
O 2.3302333690 -2.4577091765 0.9782443490
H -6.4180183411 0.0304039658 1.3932008581
H -4.8433862209 0.8192644988 1.6371902513
H -5.3418793220 0.3064707345 0.0109673806
H -5.2283025774 -2.0896944298 0.7043511192
H -4.8235142734 -1.6021505638 2.3704904625
H -1.7341595348 -0.0101198083 -2.5625180864
H -1.3222932260 1.4944360377 -1.7027879830
H -4.0768934495 0.7871463525 -2.8822632927
H -2.9298820058 1.9499613496 -3.5831035762
H -3.6917330298 2.2965742958 -2.0179279225
H -1.2536623365 -1.5928820091 2.6056531854
H 0.3876590463 -2.3076417675 2.4714753582
H 3.4485911415 2.7389329176 -0.9860707197
H 5.8709203266 2.1731209298 -1.2725481006
H 6.7160547434 -0.0561295989 -0.6742302103
H 5.1715383851 -1.8052244279 0.2347691581
H -0.7168717821 0.0966937881 0.8871227200
