45
CONF10
C 2.8090147779 -1.6417430970 2.3453487532
C 2.5238766063 -0.7715905400 1.1231460572
C 2.6696233417 -1.5488541554 -0.1833298666
C 2.3465008443 -0.7369920907 -1.4403538559
N 0.9393588588 -0.3528646608 -1.5371041698
C 0.3849773398 0.7762521000 -1.0045400657
C -1.0187033035 0.8425703963 -0.8251585173
C -1.6316895727 2.0128672044 -0.3919798913
C -0.8996558994 3.1511137135 -0.0894736264
C 0.4898718260 3.0824604271 -0.2132979182
C 1.1219131654 1.9224545608 -0.6593846648
C 1.2676358155 4.2964809072 0.1399273609
O 0.7709198393 5.3495350247 0.4907003253
O 2.6018617819 4.1173140982 0.0349400638
S -3.4213041328 2.0406085987 -0.1728438254
O -3.7944952592 0.9359868504 0.7221430679
O -3.7927445523 3.4213579714 0.1644962429
N -4.1322711992 1.7068807902 -1.6572710386
O -1.7965102446 -0.2423155703 -1.1747994983
C -1.7240453842 -1.3770847798 -0.3633212978
C -2.1390815789 -2.5695694778 -0.9460650172
C -2.0966300076 -3.7370353192 -0.1904604291
C -1.6379228568 -3.7112533123 1.1256851481
C -1.2323001633 -2.5042210311 1.6899420352
C -1.2777377386 -1.3238952882 0.9519067769
H 3.8280345562 -2.0429531690 2.3123246946
H 2.6997502229 -1.0733654258 3.2741604705
H 2.1169933172 -2.4907351597 2.3866697063
H 3.2044384967 0.0901604460 1.1099890070
H 1.5079932416 -0.3658423886 1.1962190584
H 2.0172649733 -2.4336666708 -0.1589091800
H 3.6990551761 -1.9207722498 -0.2764382020
H 2.5781912963 -1.3342655837 -2.3291858991
H 2.9740792061 0.1574922689 -1.4943828719
H 0.3076272458 -1.1289373835 -1.6673856845
H -1.3849867918 4.0566771054 0.2494422482
H 2.1986444068 1.9155556826 -0.7561876393
H 3.0326888786 4.9535258753 0.2787893948
H -3.8577457214 0.7822172176 -1.9858895572
H -3.8851461688 2.4169822355 -2.3447307739
H -2.4836177654 -2.5719366108 -1.9749832429
H -2.4187505249 -4.6718130696 -0.6382061667
H -1.6009287129 -4.6254623787 1.7085010181
H -0.8831573724 -2.4717709514 2.7171699072
H -0.9808899940 -0.3795529037 1.3950425690
