63
CONF399
C 6.7046702093 -0.4793854252 -4.1990165984
C 7.0028119232 -1.1708849188 -2.8723913917
N 5.9194405031 -0.9816492265 -1.9014085409
C 5.9320438868 0.2091893757 -1.0518827998
C 4.5218531616 0.6768543632 -0.7868709483
N 3.7408442218 -0.4134287125 -0.1684765593
C 3.9194869734 -1.6922215744 -0.6395254547
O 3.3267340471 -2.6813867086 -0.2265490345
C 4.9392555482 -1.8951336283 -1.7912639882
O 4.8262409434 -2.8979034182 -2.4929543606
C 2.7366150286 -0.0123286720 0.7747158551
O 2.5670534790 1.1774562857 1.0164632196
N 2.0148010262 -1.0013607395 1.3434153805
C 1.0128453243 -0.6735304075 2.3460139054
C 0.5103651064 -1.9316871638 3.0251170764
C 0.0186421124 -3.0024183286 2.2729525786
C -0.4652325358 -4.1406463554 2.9101181784
C -0.4736861255 -4.2138913868 4.3017670271
C 0.0063741384 -3.1451032220 5.0539229804
C 0.4982580089 -2.0079589805 4.4177713224
C -0.2007819751 0.0920844338 1.7836625239
O -0.8989759738 0.7745485672 2.5282145115
N -0.4743501606 -0.0812766183 0.4700430695
C -1.6242002977 0.5090436774 -0.1398556453
C -1.8100896471 2.0593617800 -0.1769590426
N -3.1244634304 1.8729364947 0.4626712612
C -2.9842100162 0.4972185028 0.5978684989
O -3.7037929347 -0.3460126578 1.0774172021
C -4.2506515204 2.6491287949 -0.0199493705
C -3.6287371112 3.7553431831 -0.9492675662
S -2.1643963072 2.9072751785 -1.7599623197
C -3.1523298693 4.9195133901 -0.0783600077
C -4.5778993367 4.2523688512 -2.0322803347
C -5.2328449252 1.7669289869 -0.7850877585
O -6.4940336421 2.1976986796 -0.6088127207
O -4.9254686917 0.8283130542 -1.4831746251
H 5.8042457712 -0.8991677549 -4.6560349312
H 7.5432228821 -0.6236617251 -4.8865230165
H 6.5579648340 0.5961028567 -4.0595329557
H 7.1355388014 -2.2455190426 -3.0196856854
H 7.9164540935 -0.7701643971 -2.4202830571
H 6.4666903143 1.0034469716 -1.5801021026
H 6.4635588918 0.0048011244 -0.1119807677
H 4.5319364349 1.5164748633 -0.0928258498
H 4.0358109725 0.9958463570 -1.7170566417
H 2.2362861638 -1.9645880392 1.1086096603
H 1.4447656049 -0.0048109616 3.0977800084
H 0.0059865436 -2.9515582172 1.1875673347
H -0.8417665077 -4.9688968637 2.3183262695
H -0.8544533107 -5.1012924033 4.7973694804
H 0.0029620343 -3.1962211755 6.1381439399
H 0.8766977585 -1.1759543135 5.0040427706
H -1.7693966769 0.0826899404 -1.1363732389
H -1.0947977356 2.6130978083 0.4370686439
H -4.7868756528 3.1518968596 0.7923495406
H -4.0189814883 5.4014880475 0.3881426106
H -2.6332732291 5.6566061949 -0.6957851808
H -2.4761754793 4.5883636567 0.7145399087
H -4.0818446486 5.0259305253 -2.6248036845
H -5.4637706926 4.6979737965 -1.5686012417
H -4.8946558619 3.4509571789 -2.7055452099
H 0.1430869387 -0.6451939650 -0.0952590563
H -7.0842444063 1.6488676479 -1.1543332737
