47
CONF153
C 3.9435060910 1.1167764857 5.1176548000
C 4.0073815428 0.1439111631 3.9327340937
C 5.3142363881 0.3232660233 3.1488314919
C 2.7978662898 0.2903691419 3.0324224901
C 1.9128889748 -0.7749592054 2.8477239921
C 0.7945796635 -0.6559004269 2.0258241158
C 0.5696166516 0.5512367734 1.3861702919
C 1.4226597815 1.6341388556 1.5431342279
C 2.5340266496 1.4937073120 2.3680030199
O -0.5906937218 0.7034743520 0.5974161432
P -0.5368237201 0.3307044055 -0.9612044592
O 0.2118251268 -0.8902003679 -1.3273982683
O -0.0196128154 1.7086710628 -1.6016383453
C 0.3570742409 1.7423050747 -2.9592323625
C -0.5939973400 2.0877747777 -3.9083405038
C -0.2007788695 2.1717356447 -5.2422532830
C 1.1194729584 1.9136615038 -5.6043149935
C 2.0552500957 1.5702736363 -4.6303337553
C 1.6779880216 1.4816511955 -3.2927779221
O -2.0934938983 0.3635047124 -1.3523748956
C -2.8842598720 -0.7812794933 -1.1278008673
C -3.5780892138 -0.8887770479 0.0688063618
C -4.3988931190 -1.9975852284 0.2629502862
C -4.5140837348 -2.9700629755 -0.7280182456
C -3.8079010290 -2.8361518850 -1.9219250503
C -2.9828661665 -1.7339232659 -2.1312778001
H 3.9854895523 2.1553199500 4.7717486562
H 4.7910412067 0.9512487686 5.7908607331
H 3.0181465553 0.9837498317 5.6866992266
H 5.3899767174 1.3388260070 2.7453347466
H 6.1758236307 0.1558761212 3.8035352166
H 5.3727827518 -0.3809150902 2.3130030985
H 2.0985744180 -1.7177043593 3.3548296295
H 0.1074038341 -1.4829007050 1.8811888487
H 1.2142265899 2.5679290703 1.0317635691
H 3.2014310051 2.3410817823 2.4935076795
H -1.6154734329 2.2892221516 -3.6043875544
H -0.9314602553 2.4421288453 -5.9976910780
H 1.4198613813 1.9814025011 -6.6447257900
H 3.0847270821 1.3694913469 -4.9087920267
H 2.3879202940 1.2144274037 -2.5173889213
H -4.9498590185 -2.0972005414 1.1925709497
H -5.1552131890 -3.8312238618 -0.5711095945
H -3.8964949916 -3.5910560897 -2.6964885145
H -2.4226725946 -1.6088289554 -3.0516505262
H 3.9887949055 -0.8777721471 4.3318369613
H -3.4775585938 -0.1180469142 0.8252673914
