35
CONF102
C -3.2453183790 1.8944806376 0.3889345151
C -2.9377645262 0.6035336987 -0.3305343899
O -3.7987205156 -0.0007675443 -0.9744047988
N -1.6510921963 0.1683752773 -0.2177114635
C -1.1722383129 -1.0503000120 -0.8477437590
C -0.4906721205 -1.9463127087 0.1900971970
O -1.2888708320 -2.2381646667 1.2857602325
O 0.6938643402 -1.2802374657 0.6785073767
C 1.6829182214 -1.0376991659 -0.3355464537
C 2.8712172169 -0.4042229857 0.3572180856
O 2.5948617809 0.9440440514 0.8249352081
P 1.5361745099 1.2966760058 1.9717368439
O 1.4950456756 0.0572269204 2.9859913960
O 2.3746215000 2.3813647609 2.7888239506
O 0.2153773059 1.7779120260 1.4771040831
C 1.1143885914 -0.1632602540 -1.4684475521
O 2.0896000976 0.0076197294 -2.4917665579
C -0.1898121000 -0.7627482997 -1.9985994544
O -0.7848794805 0.0501543919 -3.0019472936
H -2.4022285838 2.2774662772 0.9665071812
H -3.5431165139 2.6406638125 -0.3538780829
H -4.0993876214 1.7293409457 1.0512579126
H -0.9989575105 0.7228596425 0.3375451558
H -2.0406575022 -1.5773391508 -1.2546299471
H -0.1938326488 -2.9010684508 -0.2664521442
H -1.7428551436 -1.4250082498 1.5593059395
H 2.0208104476 -1.9989617538 -0.7608123348
H 3.6947874215 -0.2947424600 -0.3489873474
H 3.1912688998 -1.0243267368 1.2008048343
H 1.0264683541 -0.6989607272 2.5812749128
H 1.8165039912 3.0685378049 3.1846347998
H 0.9148627398 0.8430986273 -1.0793052709
H 2.2142889123 -0.8418163472 -2.9385071546
H 0.0397946443 -1.7198619236 -2.4880219371
H -1.0064506686 0.9024440972 -2.5996551503
