44
CONF54
C -0.4953110580 -3.2022481298 -0.4602611580
C -1.4273505395 -2.0412443761 -0.8468758743
C -2.8617058152 -2.5653660687 -0.9222405440
C -0.9647700488 -1.4233211163 -2.1778224428
C 0.2755195165 -0.5941938407 -1.8175403188
C 0.0708746674 -0.1507050519 -0.3410832161
C 0.1001477728 1.3806832269 -0.1783113678
C 1.4783466757 1.9356720030 -0.4280842906
C 2.5023196387 1.7301524062 0.5035349921
C 3.7882754528 2.2130272558 0.2862051434
C 4.0484022946 2.9115803263 -0.8873386208
Cl 5.6763325387 3.5308656008 -1.1758838561
C 3.0594390715 3.1384235994 -1.8340197308
C 1.7779528222 2.6465379821 -1.5923120835
C -1.2546102915 -0.8188090234 0.1198164914
O -2.3016004012 0.1404241573 -0.0889415406
C -1.2552146386 -1.2489871417 1.5965131372
N -1.0316937114 -0.1396966700 2.5146486804
C -1.9008211093 0.8011545665 2.9288486802
N -1.2818239338 1.6983678994 3.6917119894
C 0.0017996930 1.2431311664 3.7034624306
N 0.2038831557 0.1320630109 3.0050074511
H 0.5344252871 -2.8741461151 -0.2883533572
H -0.8465755674 -3.7154176464 0.4403278791
H -0.4830384137 -3.9352911938 -1.2733973758
H -3.5560022610 -1.8070547433 -1.2976991090
H -3.2175109263 -2.9206334395 0.0518928288
H -2.9021559619 -3.4138588399 -1.6135916396
H -1.7564462560 -0.7727197218 -2.5652947631
H -0.7641043428 -2.1920336163 -2.9312690582
H 0.3924998966 0.2688013800 -2.4796144866
H 1.1860313775 -1.1938848199 -1.9125758649
H 0.8747330374 -0.5642560448 0.2778476206
H -0.2203854022 1.6594779808 0.8306203879
H -0.6088378673 1.8307429504 -0.8788024988
H 2.2893711005 1.1863505405 1.4200425238
H 4.5723937504 2.0519978923 1.0177461335
H 3.2788988150 3.6894022661 -2.7417912935
H 0.9986740797 2.8262475354 -2.3276929972
H -3.1448679948 -0.2803459539 0.1265378551
H -0.4690969608 -1.9789807704 1.7919790125
H -2.2218466758 -1.7005273985 1.8474712362
H -2.9497065276 0.7873802776 2.6652967362
H 0.8051558706 1.7312371957 4.2412863629
