42
CONF172
C 3.8482123068 2.1922904566 -0.9304266006
C 3.1433567572 0.9844040145 -0.3078670499
C 2.5962972091 1.3202019345 1.0798556555
C 2.0366664329 0.5379607937 -1.2449569837
O 1.4550957447 -0.6904865154 -0.7066118079
C 0.3484160838 -1.1330997924 -1.3112967028
O -0.1900318815 -0.5885150579 -2.2566699527
C -0.1305101630 -2.4182571613 -0.7210848646
C 0.7431919590 -3.5023911705 -0.6480689911
C 0.2741041119 -4.7533692864 -0.2557715019
C -1.0692302639 -4.9273149263 0.0655077679
C -1.9436486033 -3.8470013081 0.0059481662
C -1.4806705130 -2.5888755216 -0.3764173962
C -2.4344491679 -1.4458797636 -0.3416319771
O -3.6056995463 -1.5194347776 -0.6618599245
O -1.8445881515 -0.3412574144 0.1341304440
C -2.6330146713 0.8846378041 0.1224999193
C -1.7401703363 2.0123194618 0.6083699531
C -1.2666212692 1.7753202775 2.0425094262
C -2.5069172200 3.3313441179 0.4888327241
H 3.1482862115 3.0279469460 -1.0476870609
H 4.2625430896 1.9517990210 -1.9149294644
H 4.6672724156 2.5273734134 -0.2873366371
H 3.8655391191 0.1612896892 -0.2216682090
H 2.0972718984 0.4601157131 1.5352331839
H 3.4053543942 1.6376816720 1.7449990310
H 1.8701222907 2.1395388696 1.0119832667
H 2.4141835827 0.3222920163 -2.2502303882
H 1.2470420964 1.2949148625 -1.3144884752
H 1.7837100483 -3.3705083795 -0.9257326578
H 0.9592916272 -5.5933990956 -0.2085449095
H -1.4355959889 -5.9018693880 0.3706133150
H -2.9871262247 -3.9645380574 0.2791784832
H -3.4996223793 0.7497216900 0.7807565316
H -2.9843888968 1.0568729119 -0.9004390083
H -0.8649986051 2.0534505027 -0.0554234805
H -0.7012002246 0.8432650389 2.1308040600
H -2.1255215663 1.7224755609 2.7223588187
H -0.6213685018 2.5955447479 2.3722547650
H -3.4005682929 3.3175933439 1.1238336945
H -2.8224698327 3.5201319063 -0.5424358771
H -1.8775446715 4.1657116383 0.8119106091
