35
CONF161
C -2.0107998684 -2.6478067180 -0.9420103242
C -2.2411225776 -1.3103593704 -0.2867415055
O -1.6444627903 -0.2858670947 -1.1706706149
P -1.3739405940 1.1897468142 -0.6589399398
S -0.4602482535 2.2969294231 -1.9579827642
O -2.7909122532 1.6466379449 -0.1002851595
C -2.9868754025 2.9997005954 0.4481882841
C -4.4238500819 3.0950229462 0.8934092733
O -0.5771584894 1.0372578875 0.7856471002
C 0.7461071319 0.7465319811 0.8353168915
N 1.5766911627 1.4561510955 1.6301121049
C 2.7276770472 0.8291737564 1.4161114154
N 2.5918301378 -0.1888385776 0.5467152050
N 1.2867355201 -0.2556954910 0.1616202553
C 3.5883912644 -1.1281970389 -0.0014264297
C 3.7232724807 -0.9143597606 -1.5052836594
C 3.2064587128 -2.5582180891 0.3636551355
Cl 4.2125410401 1.2564921594 2.1566498641
H -2.4545020465 -3.4283224898 -0.3165776383
H -0.9411753036 -2.8503277188 -1.0442845696
H -2.4805193973 -2.6850450979 -1.9284498852
H -1.7547520074 -1.2506401648 0.6917541499
H -3.3042008901 -1.0772272993 -0.1824048332
H -2.2913378998 3.1344414405 1.2824978257
H -2.7532339497 3.7194250397 -0.3422990233
H -5.1026550033 2.9385844441 0.0507560249
H -4.6015033317 4.0943889749 1.3015065729
H -4.6409803565 2.3584580099 1.6715642394
H 4.5272521140 -0.8621402595 0.4926226406
H 2.7912179166 -1.1732290759 -2.0156396959
H 3.9780639099 0.1246073757 -1.7317763380
H 4.5183540863 -1.5610563978 -1.8855680055
H 3.0950290228 -2.6702064589 1.4455358805
H 3.9947159085 -3.2333769690 0.0206681296
H 2.2698922313 -2.8426361022 -0.1239906065
