61
CONF63
C -1.4822114220 0.2859630559 4.2189412137
C -2.9421599303 0.0282489753 3.8491998700
C -3.5103317998 1.0361583865 2.8447746428
C -2.8494925774 0.9985712103 1.4697325134
C -3.0458825029 -0.3284021924 0.7124911087
C -3.0121881426 0.0635629598 -0.7935183598
N -2.9269095022 1.5323227399 -0.8091793987
C -3.4245076200 2.0091117948 0.4827804728
C -3.5729771031 2.1386284179 -1.9638887112
C -1.8299230416 -0.6028931681 -1.4873544436
O -1.8821143363 -1.7899821578 -1.8344800892
N -0.7362434840 0.1684470776 -1.6033377478
C 0.5401323952 -0.2645841007 -2.1420552994
C 1.5282488666 -0.7010885732 -1.0457766737
C 1.3568235405 -2.1360117713 -0.5428191119
C 2.3734622568 -2.4085760326 0.5819826641
C 2.2595665781 -1.3260633751 1.6757846416
C 2.2978382934 0.0939144570 1.0861470659
O 1.3986195608 0.2607403183 0.0140651118
S 4.0694962185 0.5364792291 0.6573312220
C 3.7580258206 2.0709177760 -0.2853505218
O 1.0582900388 -1.4824003293 2.4209908998
O 3.6877209528 -2.5541920659 0.0655932104
O 0.0708881970 -2.4210631237 0.0024324447
C 1.1078619401 0.8885792436 -3.0041248628
C 0.2087776390 1.2181698063 -4.1866287108
O 2.4383261221 0.5984989292 -3.4385459213
H -1.3527928396 1.3054434963 4.6004942331
H -1.1455710483 -0.4077161343 4.9946907524
H -0.8083970443 0.1542658249 3.3676346820
H -3.0483019096 -0.9883751528 3.4486966902
H -3.5571972811 0.0621747391 4.7566316923
H -3.4110610306 2.0486159830 3.2612901955
H -4.5867632165 0.8552663333 2.7169499151
H -1.7746961768 1.1979396360 1.5689770479
H -2.2882619711 -1.0769936473 0.9578929805
H -4.0239673468 -0.7555128164 0.9582867369
H -3.0915789913 3.0373568479 0.6681543388
H -4.5328342700 1.9947385622 0.5290404301
H -4.6627763521 1.9511965779 -1.9872688194
H -3.1413275500 1.7373600463 -2.8876381884
H -3.4106536275 3.2216701676 -1.9564459963
H -0.8186327129 1.0908418901 -1.1881435458
H 0.3476097392 -1.1299004837 -2.7923955259
H 2.5377656388 -0.6350688199 -1.4790612431
H 1.5893349538 -2.8170236825 -1.3769408352
H 2.1117977297 -3.3677015220 1.0418878180
H 3.0943773539 -1.4439094967 2.3777767960
H 1.9633455759 0.8051755059 1.8478108748
H 3.0951733550 2.7316908326 0.2798005606
H 4.7248046893 2.5610224200 -0.4205681607
H 3.3290540779 1.8459075317 -1.2631469234
H 0.3631532018 -1.7090878360 1.7798753203
H 4.0433836285 -1.6734804700 -0.1395100408
H -0.6014608551 -2.3968581031 -0.7087295175
H 1.2136969482 1.7709161893 -2.3581682958
H -0.7843455043 1.5340971028 -3.8586646097
H 0.6543547517 2.0218120307 -4.7782893500
H 0.0828867672 0.3370551078 -4.8283129850
H -3.9157043957 -0.3110920752 -1.3013891495
H 2.3884274969 -0.0500253996 -4.1517970565
