46
CONF82
C -0.1568044818 3.7265053072 -3.2399231256
C -1.4221357901 3.8974862933 -2.4021352707
C -1.4437432272 2.9595023537 -1.1947824318
C -2.7021458968 3.1464761526 -0.3674464222
O -2.7556759135 2.1701486011 0.7127443155
C -2.0571449021 2.4707623052 1.8149796515
O -1.4811267843 3.5138643555 2.0257571374
C -2.1112703369 1.3401204953 2.8449860181
C -3.3225323084 1.5245595853 3.7459596991
O -2.2302754632 0.0475565392 2.2523140101
C -1.2271829968 -0.3738105649 1.4276499602
C -1.4623606159 -1.5872759884 0.7726396679
C -0.5136455012 -2.1083581254 -0.0911414696
C 0.6725667800 -1.4128168648 -0.2996701719
C 0.9197664105 -0.2124862403 0.3413312594
C -0.0322679951 0.3161870656 1.2119843833
O 1.6057413227 -1.8968256690 -1.2206595779
C 2.4352141437 -2.8940849675 -0.8147703601
C 3.2726552119 -3.4431841510 -1.7962528654
C 4.1650297585 -4.4504271203 -1.5118543222
C 4.2383901804 -4.9433645718 -0.1992266796
C 3.4115498346 -4.4052889360 0.7926951399
C 2.5179550672 -3.3888821993 0.4865929505
C 5.1523752864 -5.9860056105 0.1149373092
N 5.8970841817 -6.8359586180 0.3701600835
F 3.1905273091 -2.9621696887 -3.0475578835
H -0.1553335624 4.4003391662 -4.1014431969
H 0.7370474913 3.9401748599 -2.6447154348
H -0.0702263069 2.7010185273 -3.6139207279
H -1.4986095190 4.9368796829 -2.0577550018
H -2.3060247813 3.7103752577 -3.0259126284
H -1.3856206933 1.9153134064 -1.5267199023
H -0.5681945181 3.1489274585 -0.5628036825
H -2.7575639065 4.1527040122 0.0590377075
H -3.6008491985 2.9448987611 -0.9560451608
H -1.1874977305 1.4087796422 3.4350225889
H -4.2411142992 1.4533876165 3.1581090973
H -3.3305129872 0.7475790685 4.5138766450
H -3.2772387972 2.5035877197 4.2289406657
H -2.4016839199 -2.0998897605 0.9470646243
H -0.6878815381 -3.0443312230 -0.6113876512
H 1.8505876552 0.3127901967 0.1565161357
H 0.1749811629 1.2614385489 1.6991737400
H 4.7934676896 -4.8487005826 -2.2994780274
H 3.4733779391 -4.7864731302 1.8051236409
H 1.8783468536 -2.9710290409 1.2550282656
