42
CONF191
C 4.6659789698 -0.4918740202 -0.9116121245
C 4.0110683258 0.8746841373 -0.7131066335
C 4.7889747105 1.9734858340 -1.4417187225
C 2.5736108985 0.8884107493 -1.2129455616
O 1.7621431650 -0.0493072374 -0.4421555228
C 1.3355540633 -1.1688232219 -1.0430943109
O 1.6217461287 -1.5211717996 -2.1703267728
C 0.5158854376 -1.9950856286 -0.1062708935
C 0.9382495304 -3.2989269765 0.1436198538
C 0.2495973644 -4.0959333565 1.0537198936
C -0.8680474972 -3.5936638387 1.7141825091
C -1.3021862111 -2.2966045954 1.4609633018
C -0.6183620202 -1.4900867970 0.5485106050
C -1.1647943172 -0.1602987668 0.1639439288
O -1.0674460085 0.3070428229 -0.9565210800
O -1.7922661670 0.4361003068 1.1876274405
C -2.4751938108 1.6935998325 0.8971836173
C -3.8601303633 1.4594483305 0.3082565653
C -4.4945265742 2.8203490028 0.0121090621
C -4.7347704588 0.6310720403 1.2492100826
H 5.6896089779 -0.4828361649 -0.5242576670
H 4.7056888940 -0.7469961847 -1.9768990570
H 4.1167502816 -1.2825120744 -0.3902688947
H 3.9936773815 1.1087983855 0.3599423068
H 4.8173862495 1.7745133110 -2.5193765435
H 4.3339838894 2.9573225923 -1.2866479273
H 5.8203386748 2.0129970255 -1.0791051846
H 2.5189487433 0.6255060165 -2.2731483963
H 2.1080131612 1.8645977114 -1.0492259647
H 1.8191964576 -3.6782443876 -0.3642335019
H 0.5890281460 -5.1083020413 1.2468872818
H -1.4097692714 -4.2148922432 2.4197331647
H -2.1903211726 -1.9123720905 1.9498495225
H -1.8492681677 2.2875462963 0.2254545190
H -2.5461743755 2.1882396180 1.8701614543
H -3.7375044749 0.9165517291 -0.6377911804
H -4.6112562384 3.4000082000 0.9354890061
H -5.4864269202 2.6888586871 -0.4303445983
H -3.8840492002 3.4044978975 -0.6842626739
H -5.7227446938 0.4676851136 0.8075375799
H -4.8710182367 1.1534761501 2.2037740418
H -4.2891728689 -0.3468595555 1.4551573688
