35
CONF742
C -0.6429035193 3.2275402448 1.0801127944
C -0.1656245445 2.3964397830 2.2562051458
O 0.8343527865 1.4970816134 1.8001321319
C 1.1580549148 0.4799912614 2.7310887454
C 1.9163309977 -0.6038656135 2.0042633248
O 1.0290059023 -1.2327239559 1.0940317677
C 1.6379651764 -2.2984960635 0.3809978000
C 0.6749532636 -2.7810913045 -0.6764925820
O 0.7072792835 -1.8877293431 -1.7803261351
C -0.4299159176 -2.0117962524 -2.6302000407
C -1.5548942209 -1.0845126130 -2.2105406552
O -1.2191111076 0.2360523245 -2.6180775882
C -1.7746259977 1.2599979223 -1.7983589739
C -0.8364936063 1.5627878014 -0.6393132909
O -1.4945359699 2.5286468150 0.1866669335
H -1.2353420262 4.0666584342 1.4629780029
H 0.2321864230 3.6345609689 0.5466297049
H 0.2368636683 3.0617962166 3.0420082496
H -1.0199111655 1.8423654580 2.6791796982
H 0.2423844071 0.0499313003 3.1689630698
H 1.7780637052 0.8777913908 3.5536969326
H 2.3025434525 -1.3304438136 2.7410748476
H 2.7752629372 -0.1674002885 1.4684439549
H 1.8789098058 -3.1294125699 1.0674623401
H 2.5724814936 -1.9664963399 -0.0995577331
H -0.3317545150 -2.8382995578 -0.2321353753
H 0.9624209261 -3.7959928033 -1.0023554392
H -0.7883923552 -3.0534696115 -2.6551655657
H -0.1049433354 -1.7391075012 -3.6402770803
H -2.5001260905 -1.3967040117 -2.6889693336
H -1.6907307869 -1.1430803261 -1.1195893965
H -2.7692576990 0.9794627425 -1.4188860339
H -1.8955703265 2.1471140144 -2.4290694651
H -0.5967731687 0.6481584488 -0.0817447837
H 0.1118477279 1.9642446259 -1.0267814729
