49
CONF23
C -4.8296170677 -0.2478080548 0.6415418945
C -3.7651398963 -1.2928435514 0.3828719132
C -2.2714833156 -0.9226430691 0.5073405954
C -2.9259143488 -1.2323087285 -0.8586187763
C -2.4548680602 -2.5110327727 -1.5247949333
C -3.1262960752 -0.1215063022 -1.8674250027
C -1.8118375310 0.4157965895 0.8704066093
O -2.3023266442 1.4949578221 0.6091670096
O -0.6479925004 0.3125292707 1.6110416985
C -0.0511902950 1.5815262822 1.9678513368
C 0.7864383014 1.3026826439 3.1352336210
N 1.4674222469 1.1138589972 4.0486109511
C 0.7727205162 2.1577410441 0.8348982941
C 1.7818432394 1.3782919729 0.2703467335
C 2.5340557126 1.9054487050 -0.7743119546
C 2.2825560997 3.1894614543 -1.2590292487
C 1.2697873878 3.9485033730 -0.6872610222
C 0.5106911066 3.4414428215 0.3656483395
O 3.5166857479 1.1888895746 -1.4201605951
C 4.1701667429 0.1728578558 -0.7320544385
C 4.7817701383 0.4165954684 0.4949696280
C 5.4850225889 -0.6131599765 1.1119343761
C 5.5838657607 -1.8649207820 0.5053123106
C 4.9744360670 -2.0859726647 -0.7272453866
C 4.2588440855 -1.0668966252 -1.3524453443
C -4.1456775995 -2.6344061221 0.9798391350
H -5.0147633834 -0.1661130389 1.7181817438
H -5.7642295696 -0.5662331332 0.1655004444
H -4.5704612918 0.7410710130 0.2697352232
H -1.6371104791 -1.7131463712 0.8943098742
H -2.1981845035 -3.2964788952 -0.8133833220
H -3.2385640220 -2.8926220439 -2.1897070083
H -1.5686011799 -2.3053412808 -2.1344832799
H -3.4074052887 0.8289252669 -1.4190769397
H -3.9088655015 -0.4198017385 -2.5744934599
H -2.2030653647 0.0330217476 -2.4365267721
H -0.8311968801 2.2926523037 2.2626215253
H 1.9736285030 0.3758103375 0.6382890043
H 2.8825759607 3.5743804593 -2.0766974868
H 1.0720737664 4.9464536875 -1.0646852078
H -0.2826648040 4.0328371184 0.8103845790
H 4.7054908756 1.3960914355 0.9560856485
H 5.9650593128 -0.4316085905 2.0683810108
H 6.1363241361 -2.6625287546 0.9908981201
H 5.0489364814 -3.0570830393 -1.2064003572
H 3.7735436312 -1.2214628995 -2.3103906020
H -4.4109324726 -2.5066681108 2.0346615068
H -5.0218810568 -3.0381263280 0.4592187977
H -3.3436682720 -3.3711133551 0.9235787133
