23
CONF1
C -3.0207224791 0.3018717412 -0.8682638043
N -2.1224695533 0.8221594419 0.1447357683
C -1.0311696037 0.1862581192 0.5984593641
N -0.1821391379 0.5832535262 1.5521516761
N -0.4120897717 1.7614786618 2.2175069139
O 0.4263478910 2.0517197926 3.0558380509
O -1.4066644408 2.4852132285 1.9782227189
N -0.7363146405 -1.0347817242 0.0550030034
C 0.5622185896 -1.6798556334 0.2928912745
C 1.6934718327 -1.0473891178 -0.4563294698
C 2.5994732213 -0.1254866057 -0.0142123080
N 3.5153255143 0.3278697350 -0.9319158907
C 3.3150624631 -0.2283539520 -2.0773868918
S 1.9923861896 -1.3757907578 -2.1492854009
Cl 4.2590538163 0.0834845315 -3.4864435500
H -3.8520004628 0.9996541097 -0.9788948134
H -3.4337452594 -0.6747778503 -0.5839551000
H -2.5317284739 0.2145910623 -1.8486940465
H -2.3069921931 1.6944192220 0.6347598003
H -1.1699879502 -1.2465500090 -0.8295513267
H 0.4501137394 -2.7338569995 0.0198761413
H 0.7782367664 -1.6297583600 1.3614466622
H 2.6143336253 0.2646283510 0.9969648405
