47
CONF82
C -7.3352978969 -2.3522020814 -2.0299077591
O -6.1701059075 -1.8636718512 -2.7631306570
P -5.1012186945 -0.9221521908 -2.0444333333
S -3.6873744234 -0.3628336156 -3.2444166000
O -5.9171060732 0.2391962784 -1.2923157780
C -6.4002347540 1.3863095757 -2.0459652908
O -4.6874190619 -1.8334366866 -0.7687376141
C -3.6688904575 -1.4339113633 0.1054842707
C -2.3905520666 -1.9440581299 -0.0856763943
C -1.3850992473 -1.6047925142 0.8100410346
C -1.6597552220 -0.7393540402 1.8728885743
C -2.9502465113 -0.2352745546 2.0488552002
C -3.9662159831 -0.5920464002 1.1672723532
S -0.4221622637 -0.3169806691 3.0931552238
C 1.0585895144 -0.1290814323 2.1079866084
C 2.2436804232 -0.6983791538 2.5769206269
C 3.4330568121 -0.5130833457 1.8779291654
C 3.4138905991 0.2286535161 0.7053671285
C 2.2418940565 0.7958370168 0.2200771346
C 1.0615711815 0.6246775367 0.9306304307
O 4.5745380188 0.3811523042 -0.0574323788
P 5.8332962914 1.2613154516 0.4666740024
S 5.3901986585 2.8784321036 1.4454355665
O 6.6673425863 1.4214600584 -0.8873281110
C 6.3022868494 2.4495437643 -1.8504828278
O 6.6800247516 0.1412858970 1.2301499033
C 7.8607965147 0.5162135162 1.9952493866
H -7.9531892801 -2.8577695101 -2.7711637116
H -7.8826582822 -1.5156974111 -1.5886716472
H -7.0190927125 -3.0553001523 -1.2561856719
H -7.0969853408 1.0613580369 -2.8239097663
H -6.9138866184 2.0172476801 -1.3210313227
H -5.5578626940 1.9228166402 -2.4896392477
H -2.1940367777 -2.6091246105 -0.9193467485
H -0.3882447925 -2.0113650988 0.6771670379
H -3.1651769828 0.4392864069 2.8712565951
H -4.9728120230 -0.2103567228 1.2943055496
H 2.2403261702 -1.2946194296 3.4833649567
H 4.3579019046 -0.9566020333 2.2301736010
H 2.2640976002 1.3771533654 -0.6954358395
H 0.1449257037 1.0778151161 0.5680411582
H 7.0190987626 2.3541128921 -2.6654012630
H 5.2870871379 2.2763673295 -2.2180928306
H 6.3779905756 3.4372235524 -1.3890429925
H 7.5879479890 1.2293167918 2.7770759939
H 8.2279530345 -0.4096663423 2.4367265755
H 8.6171278358 0.9449846891 1.3325656778
