27
CONF53
C -2.9519324530 -0.3018783587 0.4813976101
C -3.9721274226 0.2275414845 -0.5304351604
O -3.8739648509 -0.3678419132 -1.8234338288
C -1.5251753965 0.0842258581 0.1690332807
C -0.5181500581 -0.3541602738 1.2711876297
C 0.9677626062 0.1571953290 1.1894303070
C 1.7600444896 -0.1206736971 -0.1289888264
C 3.3140397453 0.0173569992 0.0396477510
C 4.0811553756 0.1906237204 -1.3133726876
F 5.3925307961 0.0337238595 -1.0885510403
F 3.8804404016 1.4088375641 -1.8263283982
F 3.6804983952 -0.7314037018 -2.1997108414
F 3.7886762672 -1.0965120785 0.6370433376
F 3.6027277140 1.0901495330 0.8110773581
F 1.5031324784 -1.3780399371 -0.5524096526
F 1.3516149426 0.7603941079 -1.0718745281
F 0.9725970066 1.4881407244 1.4200583378
F 1.6297801287 -0.4579605257 2.2061468797
F -0.9731387525 0.0995701489 2.4710703502
F -0.4974835356 -1.7092718502 1.3156385110
F -1.4066183251 1.4446071382 0.0257397286
F -1.0944946259 -0.4779133117 -1.0038669738
H -3.2004837029 0.1078412949 1.4655825230
H -3.0096079378 -1.3933782637 0.5499027444
H -4.9698648404 0.0695959648 -0.1002603588
H -3.8378406201 1.3027706079 -0.6768658510
H -4.0941182068 -1.3041640099 -1.7368580744
