47
CONF11
C -4.3449017083 -3.0558694708 -0.9785839396
C -3.7255160542 -1.6769948695 -1.1932679677
C -3.8384419758 -0.7828359496 0.0407655699
C -3.2349483031 0.6018026809 -0.1855721565
C -3.2713465560 1.5263733759 1.0389561480
C -2.9784285666 2.9903256306 0.6703007636
C -4.1059940276 3.6726071156 -0.1024098042
C -2.3317936291 1.0509244702 2.1457797985
O -0.9487577243 1.1681710138 1.7290045859
C -0.2999238327 0.0232898698 1.3773173809
O -0.7981838751 -1.0847016576 1.4175080337
C 1.0697561192 0.3362628684 0.9555718339
C 1.8940483076 -0.6510274108 0.5599687637
C 3.2682783551 -0.5349421804 0.1159082295
C 3.9535557173 0.6925733191 0.0223949180
C 5.2635473017 0.7493481160 -0.4004615959
C 5.9449178443 -0.4267960093 -0.7490857183
C 5.2897596398 -1.6573045049 -0.6681531345
C 3.9684218544 -1.6950057167 -0.2400111393
O 7.2312854107 -0.2595566060 -1.1503984601
C 7.9721738027 -1.4254985250 -1.5063161625
H -4.2481645761 -3.6836696855 -1.8697620510
H -3.8567262485 -3.5751601581 -0.1470438286
H -5.4111249877 -2.9747578098 -0.7398705417
H -2.6645272103 -1.7864663784 -1.4528046214
H -4.2057984501 -1.1832537745 -2.0490183524
H -3.3325218871 -1.2802285059 0.8761387555
H -4.8968075761 -0.6768134995 0.3200697521
H -3.7711736109 1.0842880661 -1.0118026441
H -2.1940083688 0.4991861462 -0.5224187939
H -4.2822222681 1.4812258635 1.4766458898
H -2.7887871224 3.5559235645 1.5920481763
H -2.0474988160 3.0309611177 0.0916356177
H -3.8616713326 4.7198710315 -0.3045744247
H -5.0402479115 3.6526432011 0.4696692139
H -4.2955817715 3.1905445526 -1.0658946123
H -2.4208264909 1.7012605617 3.0221283097
H -2.5309713957 0.0174507286 2.4389867470
H 1.3634063524 1.3796463843 0.9832559462
H 1.4804806589 -1.6586816057 0.5791249129
H 3.4485477529 1.6154550531 0.2864751176
H 5.7920153500 1.6936887939 -0.4721773640
H 5.7900110476 -2.5805224684 -0.9319089893
H 3.4624114218 -2.6542064400 -0.1775208555
H 7.5140862987 -1.9416516846 -2.3594072603
H 8.0552941166 -2.1160710453 -0.6577248196
H 8.9648972159 -1.0718076800 -1.7860869303
