43
CONF15
C -3.3364134776 2.5473254829 1.2701485977
Si -1.7255807655 1.6848479723 0.9218482911
C -0.3371045666 2.8877829504 0.5802711897
O -1.4198963285 0.7433045793 2.2379821053
O -1.9034971422 0.7682666131 -0.4480330333
Si -1.8198216095 -0.7877999902 -0.9590787821
C -2.5433599492 -0.8541039766 -2.6736949319
C -2.6811464547 -1.9343103806 0.2307501674
O -0.2324017871 -1.2677665458 -1.0226737920
Si 1.2117206405 -0.5984914216 -1.4664509907
C 2.2340638359 -1.9507714697 -2.2399599082
C 0.9765844988 0.8532053541 -2.6071451406
O 1.9631569555 -0.0522439027 -0.1010381852
Si 2.1422220268 -0.5620476235 1.4544863900
C 3.4594602416 -1.8803330357 1.5246314020
C 2.5007211784 0.8884566783 2.5534751343
O 0.6841499856 -1.1819810665 1.9981673907
H -3.6467177462 3.1619648383 0.4192616591
H -3.2532282156 3.1958403041 2.1481245670
H -4.1266698507 1.8157246817 1.4681009499
H -0.1564550227 3.5359746743 1.4443900632
H 0.5950555298 2.3594963362 0.3504568864
H -0.5771551725 3.5275251883 -0.2762252702
H -0.6547400774 0.1426842890 2.2289804228
H -2.4562138558 -1.8567410003 -3.1046491915
H -3.6031333546 -0.5794143175 -2.6620233087
H -2.0264125287 -0.1519862027 -3.3362372642
H -2.3017299144 -1.8040758703 1.2500488350
H -2.5497420382 -2.9815520231 -0.0613583096
H -3.7556972666 -1.7247561806 0.2586681243
H 1.7940522371 -2.2795770783 -3.1873401090
H 3.2550865410 -1.6098711881 -2.4403213010
H 2.2934345416 -2.8247193459 -1.5828251737
H 1.9320037671 1.3586569783 -2.7831459553
H 0.5819924861 0.5344915061 -3.5776473853
H 0.2816835369 1.5823211022 -2.1787562694
H 4.4126145799 -1.5016513728 1.1405068228
H 3.6178039072 -2.2217155039 2.5527353269
H 3.1833943964 -2.7525956536 0.9222429629
H 2.6675869229 0.5652804766 3.5859676440
H 3.3950596859 1.4211276367 2.2148441926
H 1.6643517311 1.5946881315 2.5524681398
H 0.2609178240 -1.8104604438 1.4000465449
