44
CONF15
C -1.3468229908 0.8743460365 2.2182084056
C -1.1213919864 0.8446378730 0.7067100698
C -2.0007609629 -0.2207876260 0.0489580099
O -1.6074504215 -1.2938327430 -0.3501078547
O -3.2744527170 0.1981858049 0.0156232176
C -4.2553344070 -0.7100361976 -0.5956091910
C -5.5924767234 -0.3335708933 0.0078061817
C -4.2001755910 -0.5424036102 -2.1026489429
N 0.2812711797 0.6451615876 0.3235442001
C 1.2018586641 0.0304709256 1.2166547798
C 2.3100405576 0.7436745979 1.6726648957
C 3.2198645749 0.1426403663 2.5319546854
C 3.0014364045 -1.1577313190 2.9545410828
C 1.8879415092 -1.8730253874 2.5203040288
C 0.9906303598 -1.2823312240 1.6410323072
Cl 1.6426840380 -3.5071558247 3.0680780314
F 3.8743998527 -1.7278957132 3.7990085143
C 0.6226057157 1.0804461374 -0.9458926287
O -0.1768177985 1.6987821326 -1.6385957688
C 1.9945475446 0.7731269800 -1.4560985842
C 2.7086092999 1.8069553419 -2.0647479675
C 3.9631148731 1.5615710658 -2.6089470855
C 4.4959621940 0.2750878797 -2.5807784982
C 3.7685563442 -0.7655194418 -2.0095941561
C 2.5250101877 -0.5185793523 -1.4396648728
H -2.3795366262 1.1733782957 2.4091245446
H -1.1746499486 -0.0981353092 2.6855275135
H -0.6785031550 1.6037459728 2.6838191911
H -1.4265093928 1.8070102045 0.2835033718
H -3.9713589508 -1.7300638841 -0.3167623300
H -6.3731172100 -0.9865337187 -0.3930436266
H -5.8481817897 0.7014928297 -0.2379560007
H -5.5756715233 -0.4419370581 1.0954581398
H -4.9322877861 -1.2048297099 -2.5746703426
H -3.2087273769 -0.7946692997 -2.4850748171
H -4.4354036979 0.4898872174 -2.3789120237
H 2.4638271767 1.7637211412 1.3390150835
H 4.0948001557 0.6711457894 2.8931020431
H 0.1441364909 -1.8420436518 1.2588121080
H 2.2659522608 2.7965993487 -2.1094309112
H 4.5217623445 2.3721181752 -3.0657753078
H 5.4720265017 0.0814730596 -3.0139158952
H 4.1702046287 -1.7735897656 -2.0072340082
H 1.9583893085 -1.3309863354 -0.9979896077
