44
CONF3
C -4.3015839577 -0.5006449924 0.9899290070
N -3.0027919813 -1.1347589704 0.8546282741
C -2.0216601171 -0.8796620084 1.9222074415
C -0.8181418322 -1.6999135725 1.4181516720
C -0.9659368938 -1.6699986952 -0.1286128160
C -2.2334814595 -0.8266408588 -0.3628015178
C -1.9362036196 0.6792880538 -0.4884064793
C -1.2411468948 1.2607317130 0.7487792226
C -1.7069432147 0.6224395287 2.0579147493
O 0.2064052086 1.0165568405 0.6574063848
C 0.9162441246 1.8502584800 -0.1157112612
O 0.4660353524 2.8334910447 -0.6706844891
C 2.3549947377 1.3723500290 -0.2381407955
C 3.2322535694 2.4669144301 -0.8625717293
O 3.2225955375 3.6637479341 -0.0998517241
C 2.3696760576 0.0970800817 -1.0537806807
C 1.8196071701 0.0824262287 -2.3396800024
C 1.8103199663 -1.0878079874 -3.0907170975
C 2.3499725558 -2.2592696799 -2.5668956877
C 2.9007671601 -2.2523377373 -1.2891291731
C 2.9100276921 -1.0808989502 -0.5380813289
H -4.7764124072 -0.8484564384 1.9146420150
H -4.2970713601 0.6042340672 1.0142366095
H -4.9392576168 -0.8080383984 0.1531240045
H -2.4081666904 -1.2522801919 2.8793618371
H 0.1328357096 -1.2811013007 1.7535798649
H -0.8915806892 -2.7247368747 1.7901196160
H -0.0898221072 -1.2511160260 -0.6275368492
H -1.1235480959 -2.6795767668 -0.5161027375
H -2.7915603746 -1.1556193667 -1.2486096538
H -2.8751394563 1.2262152578 -0.6379815764
H -1.3233949540 0.8797651584 -1.3738314720
H -1.3731215144 2.3465647021 0.7775030853
H -2.6108521868 1.1489984785 2.3865750022
H -0.9488658765 0.7942024321 2.8298878061
H 2.7200140057 1.1561263578 0.7720646848
H 2.9109629666 2.6478060652 -1.8981063975
H 4.2673258923 2.1119671616 -0.8872531045
H 2.3427202556 4.0471913055 -0.2108875192
H 1.3793003538 0.9889661483 -2.7462440298
H 1.3749367215 -1.0863762610 -4.0849292922
H 2.3386025777 -3.1737697411 -3.1507956674
H 3.3202160568 -3.1625525936 -0.8725492346
H 3.3308708508 -1.0817637060 0.4632579671
