21
CONF3
C -3.5251532993 0.7313918819 -0.7338023517
C -2.1865887205 1.3211150428 -0.3756474949
O -2.0649029083 2.5230508310 -0.1656573018
C -1.0055551299 0.4099417592 -0.2810414978
C -1.1099865364 -0.9675304805 -0.5251155354
C 0.0214793608 -1.7656695838 -0.4223710143
C 1.2592543595 -1.2226597455 -0.0806140242
C 1.3609412052 0.1522971955 0.1626630077
C 0.2292732098 0.9614976863 0.0610468688
O 2.5151636760 0.7890040956 0.5027441284
C 3.7050056697 -0.0061146626 0.6137518834
H -3.8126393173 -0.0368632082 -0.0082034941
H -4.2764050351 1.5209946238 -0.7513146083
H -3.4783003669 0.2453807126 -1.7143482122
H -2.0594478073 -1.4153840124 -0.7921800447
H -0.0510009151 -2.8323133515 -0.6101318060
H 2.1237123775 -1.8709509262 -0.0079457852
H 0.3124334696 2.0262301146 0.2503755974
H 3.5975099730 -0.7667521551 1.3956665492
H 4.4988224879 0.6896764026 0.8857933723
H 3.9463838450 -0.4863424212 -0.3414785311
