43
CONF60
C -0.6714142181 3.2915139033 3.1529056039
C -0.6545416611 1.8684803536 3.6756478696
O -0.8430701232 0.9082579776 2.6201325777
N 0.3362662165 0.8171304802 1.8841405910
C 0.1501511994 0.1992368320 0.7831919577
C -1.1213074841 -0.3059417610 0.2364101553
C -2.1391511857 0.5850997121 -0.1499029151
C -3.3237383247 0.0859394513 -0.6909170182
C -3.4966966511 -1.2865278692 -0.8395026696
C -2.5006324892 -2.1676648462 -0.4505467653
C -1.3036524183 -1.6823765304 0.0860336844
O -0.2966750230 -2.5343971778 0.4427123248
C -0.3620638755 -2.9445462125 1.8220975108
Cl -2.7320651653 -3.8916898457 -0.6302645804
O -1.8680647584 1.8978907274 0.0197479321
C -2.8125402269 2.8430152011 -0.4726445091
O 1.3250710450 -0.1128615756 0.1157117304
C 1.3880413007 0.1782687311 -1.2289640135
O 0.5749180657 0.8657069511 -1.7956367458
C 2.5753062272 -0.4432950254 -1.8557701213
C 2.8491519389 -0.1172525262 -3.1876245498
C 3.9450402083 -0.6781622168 -3.8273145989
C 4.7696814050 -1.5693280757 -3.1432621072
C 4.4961993400 -1.8990065125 -1.8183373315
C 3.4024608358 -1.3383955628 -1.1706026262
H -1.6123196606 3.4962952589 2.6342462851
H -0.5655785349 3.9983588725 3.9824786510
H 0.1541299164 3.4488719426 2.4536813260
H 0.2824413236 1.6431489775 4.2000360520
H -1.4952312967 1.6796114731 4.3507372856
H -4.1155099002 0.7507653213 -1.0100146028
H -4.4168547419 -1.6742880679 -1.2613886145
H 0.4979342844 -3.5958700611 1.9851428387
H -1.2884942582 -3.4981578936 2.0153895279
H -0.3023619062 -2.0730533237 2.4857886776
H -2.9678315154 2.7200859623 -1.5517615889
H -3.7724781092 2.7605294268 0.0536690663
H -2.3755439362 3.8231588918 -0.2786640449
H 2.1904743381 0.5750463117 -3.7001518927
H 4.1579194198 -0.4233164725 -4.8602477390
H 5.6257923744 -2.0091593513 -3.6449945534
H 5.1368924355 -2.5967978099 -1.2892640936
H 3.1799454889 -1.5943234490 -0.1421238659
