44
CONF37
C -4.3678215803 1.8940926795 0.5360738199
N -3.5562143239 0.6762623030 0.4260870468
C -2.9752732436 0.5196984105 -0.9286717204
C -1.8121976506 1.5482787527 -0.9944758610
C -1.3806042838 1.7119575451 0.4851193164
C -2.3286016083 0.7517956179 1.2531600778
C -1.7737097847 -0.6722970142 1.3726047146
C -1.4831224315 -1.3196087614 0.0207869496
C -2.4996099047 -0.9319888630 -1.0552513761
O -0.1394884839 -0.8665422157 -0.3793987553
C 0.5542966049 -1.6390925371 -1.2218260104
O 0.1727713153 -2.7097844220 -1.6551527441
C 1.8737905913 -0.9790280716 -1.5931326520
C 2.7650535639 -1.9584902411 -2.3700483157
O 3.9453550578 -1.3160527260 -2.8532615240
C 2.5845689578 -0.3977661820 -0.3910152081
C 2.9286137606 0.9539092003 -0.3483713269
C 3.6014132013 1.4796880393 0.7536798152
C 3.9379713770 0.6561089254 1.8243912072
C 3.6014552338 -0.6969502769 1.7875653900
C 2.9318506350 -1.2201277778 0.6864584214
H -3.8315195418 2.8212590108 0.2729373310
H -5.2372925437 1.8072460309 -0.1241216499
H -4.7299750152 1.9931519602 1.5648804622
H -3.7427371009 0.7119566765 -1.6861556036
H -0.9990691823 1.1982891685 -1.6349060934
H -2.1689885123 2.4968435809 -1.4056575315
H -0.3297217381 1.4625141725 0.6496468996
H -1.5322582369 2.7407922078 0.8238907704
H -2.5765830527 1.1238976977 2.2530668253
H -2.5214532139 -1.2894477422 1.8831734313
H -0.8631495821 -0.6867863569 1.9817021019
H -1.4311731737 -2.4069714947 0.1203978067
H -3.3690587381 -1.5904703861 -0.9461573938
H -2.0718863707 -1.1165431034 -2.0464387953
H 1.6087416593 -0.1538875390 -2.2694379884
H 2.2294491397 -2.3234641954 -3.2493538376
H 3.0147379550 -2.8211074508 -1.7364034810
H 4.4606353005 -1.0293525170 -2.0871624083
H 2.6629699245 1.5992463693 -1.1813360926
H 3.8610282364 2.5337128036 0.7741854054
H 4.4600342397 1.0644082006 2.6841188896
H 3.8594349164 -1.3446568780 2.6198590214
H 2.6673388342 -2.2746922146 0.6674275716
