34
CONF4
C 4.2315693170 -0.6524399936 0.3501590700
C 2.9774576165 -0.8064771482 -0.4599327367
O 2.9481854834 -0.9394607347 -1.6690653385
O 1.8855283617 -0.7555253750 0.3282197798
C 0.5698568724 -0.8406031404 -0.2955886964
C -0.3856792283 -1.6573072191 0.6060984193
C -1.5618847705 -0.6856890354 0.8302954317
C -1.0735308254 0.3850189424 1.8251147980
C -0.0617362057 1.2072718184 0.9754332651
C -0.1108820231 0.5413161333 -0.4208742121
C -1.6129577955 0.0956868114 -0.5133426162
C -1.9486537949 -0.7790927046 -1.7272428565
C -2.6013594905 1.2651409671 -0.5154848499
C 0.4359704094 1.4067161724 -1.5381255858
H 5.0780747138 -1.0612600186 -0.2018069605
H 4.4045038009 0.4168353013 0.5162578581
H 4.1364005872 -1.1333073544 1.3253935983
H 0.7107776230 -1.2934599745 -1.2777349229
H 0.1015785537 -1.9306141701 1.5465120719
H -0.6942755383 -2.5819282346 0.1109768982
H -2.4962812432 -1.1764591772 1.1185377219
H -1.8990755919 1.0083188405 2.1810479216
H -0.6076031476 -0.0723800334 2.7033953452
H 0.9504684294 1.1903101435 1.3869899747
H -0.3575887032 2.2575795432 0.8956595937
H -2.9943833404 -1.1012998901 -1.6677183774
H -1.8343602785 -0.2037866433 -2.6525814657
H -1.3329378537 -1.6760932841 -1.8131417644
H -3.6211728632 0.8841731176 -0.3886150219
H -2.5630726422 1.7903425621 -1.4761075204
H -2.4163964918 1.9969072350 0.2725594137
H -0.1205466799 2.3477550898 -1.6048097464
H 0.3765021476 0.8977063942 -2.5062310990
H 1.4875049728 1.6561052553 -1.3549016946
