61
CONF614
C -3.9909033617 3.3794868063 5.2327011160
C -2.8568135578 2.4727334413 4.7593133472
C -3.1380986255 1.8646948566 3.3854614961
C -1.9959351165 0.9621555911 2.9291523829
C -2.2415330593 0.3325059263 1.5753044164
O -3.2659720038 0.6415639962 0.9214076774
N -1.3604343973 -0.5718255674 1.0915708718
C -0.0472814061 -0.8474837350 1.7091490833
C 1.0814245500 -0.4225785280 0.7983599257
C 1.8785872833 -1.3700415768 0.1547600828
C 2.8828902265 -0.9724971397 -0.7207442568
C 3.1164836132 0.3837609516 -0.9647035056
C 2.3414632489 1.3340447501 -0.2917715525
C 1.3282561026 0.9338717329 0.5705080288
C 4.1692980680 0.8038045661 -1.9201079024
C 5.2348457936 1.5887794397 -1.4702976513
C 6.2817292073 1.9353639098 -2.3183872836
C 6.2806169451 1.4977560196 -3.6405854077
C 5.2181547343 0.7379429605 -4.1137294997
C 4.1554421401 0.3960191787 -3.2699420657
C 3.0222455755 -0.3395319154 -3.8340483309
N 1.7422886901 -0.1005467508 -3.5282091403
N 1.1178333208 -0.9894254418 -4.2763253666
N 1.9135875723 -1.7444699071 -5.0135324485
N 3.1362168330 -1.3418936121 -4.7503124851
C -1.6781479969 -1.4244468723 -0.0792719879
C -2.9454339438 -2.2955992353 0.1247053394
C -3.1317757225 -3.2286404761 -1.0742407654
C -2.8242314743 -3.0983383735 1.4204849068
C -1.7276711612 -0.6702588606 -1.4153026858
O -1.0883663890 -1.0502715884 -2.3819945294
O -2.5395450321 0.3739223596 -1.4887137356
H -4.9309377424 2.8216512304 5.3071125834
H -4.1475054191 4.2063421067 4.5311757966
H -3.7747379971 3.8081184921 6.2162069291
H -2.6984739939 1.6664602590 5.4875380675
H -1.9191751071 3.0425256306 4.7177611580
H -3.2908272721 2.6651460060 2.6526983731
H -4.0705234826 1.2891289187 3.4215131534
H -1.0646294957 1.5417246688 2.8899853678
H -1.8295258462 0.1654231880 3.6655838438
H 0.0182521348 -0.3170114311 2.6579830715
H 0.0196897186 -1.9198934242 1.9219324216
H 1.7092764108 -2.4281834895 0.3362748662
H 3.4872700651 -1.7200292414 -1.2264924227
H 2.5174949130 2.3908992201 -0.4693442715
H 0.7187574923 1.6849428166 1.0661470199
H 5.2495566916 1.9047690108 -0.4315128788
H 7.1028100125 2.5378923886 -1.9431161328
H 7.0967896662 1.7594848082 -4.3059160248
H 5.1901100597 0.4234894958 -5.1518955329
H 0.1078868002 -1.1106008801 -4.2335309323
H -0.8333056157 -2.1110376884 -0.1794929803
H -3.8188174707 -1.6394133690 0.1943370075
H -2.2532500208 -3.8705775539 -1.2072993862
H -3.2976729764 -2.6777456426 -2.0049445397
H -4.0010514589 -3.8707479542 -0.9058945732
H -1.9569246753 -3.7678960434 1.3792307865
H -2.7197169961 -2.4515448474 2.2966903326
H -3.7198548194 -3.7110797216 1.5596614077
H -2.9601838936 0.5172061564 -0.5678878234
