51
CONF38
O 4.0086762420 -1.2933501515 -1.8403352497
C 3.5120137494 -0.1819584235 -1.0735642887
C 2.1290990051 -0.5951152507 -0.5745354193
C 1.4165337141 0.5192556836 0.1881095189
C 0.0151076085 0.1041092072 0.6019832826
C -1.0782970034 0.0319624927 -0.5212652122
N -1.8112035651 1.0747666826 0.2402022318
C -0.8574382753 1.1935844737 1.2269147164
O -0.7722620364 1.9277826609 2.1936373545
C -3.0178383007 1.7172642165 -0.0377906498
C -3.6692263416 1.4593459093 -1.2497442846
C -4.8744336678 2.0884252105 -1.5417810810
C -5.4039452194 2.9690740977 -0.6149632514
F -6.5807560682 3.5879071643 -0.8979234923
C -4.7803190935 3.2443660754 0.5909080247
C -3.5789275802 2.6112626912 0.8848199591
C -1.8037876496 -1.2656075048 -0.7122433254
C -1.6403500921 -1.9900020233 -1.8949259043
C -2.2635553953 -3.2181040858 -2.0774587386
C -3.0754804537 -3.7343801241 -1.0671657201
O -3.6726283029 -4.9409405603 -1.2952907157
C -3.2579547001 -3.0187317618 0.1190064855
C -2.6213062088 -1.7954450074 0.2891301273
C 4.4487998349 0.1757674393 0.0589918496
C 4.8263432400 1.5008188449 0.2785803442
C 5.6615897939 1.8443413846 1.3400564615
C 6.1127523121 0.8309001342 2.1663748151
F 6.9300639369 1.1507109158 3.2040544451
C 5.7690379646 -0.4989843434 1.9797022123
C 4.9303358713 -0.8175805864 0.9172818176
H 4.8984227426 -1.0661271932 -2.1397379153
H 3.4026492683 0.7002445794 -1.7236108752
H 1.5323942501 -0.8940831298 -1.4456252653
H 2.2351728100 -1.4783644927 0.0684367090
H 1.9842698167 0.7842331939 1.0882373122
H 1.3593330291 1.4246165590 -0.4315665357
H 0.0333726545 -0.8061313017 1.2123440732
H -0.7103491001 0.4159573149 -1.4809324183
H -3.2379746418 0.7665594590 -1.9639277005
H -5.3928457335 1.8997650448 -2.4753630458
H -5.2297022610 3.9412992238 1.2898740543
H -3.0744534215 2.8086965005 1.8223569023
H -1.0155720148 -1.5869852896 -2.6877717386
H -2.1350889232 -3.7795119780 -2.9971729120
H -4.2064015300 -5.1872778366 -0.5281606117
H -3.8971713852 -3.4195308455 0.9013471428
H -2.7709598632 -1.2434555192 1.2133045314
H 4.4619384732 2.2799925713 -0.3852713731
H 5.9614439463 2.8708702198 1.5208371533
H 6.1511236353 -1.2591967853 2.6525007915
H 4.6497547392 -1.8530160633 0.7508415240
