78
CONF726
C -0.7921362138 -0.6548698738 -0.4560216165
C 0.1363783679 -1.8141451177 -0.7847958091
O -0.7075146585 -2.9996136041 -0.5665827756
C -1.7276237247 -2.7040311108 0.2804757170
O -2.5033450327 -3.5546149975 0.6515454743
C -1.6405675992 -1.2459113259 0.6587003238
C -2.9175000146 -0.4353476603 0.8964963293
C -3.9652835986 -0.6089495822 -0.1972399594
C -3.9723407966 0.2127193969 -1.3264514941
C -4.9184491150 0.0216275309 -2.3351934211
O -5.0036715466 0.7699236788 -3.4735202968
C -4.0238647654 1.8012018041 -3.6500183599
C -5.8746448674 -0.9918728872 -2.2112516043
O -6.8006962117 -1.1613035706 -3.2022816438
C -5.8722412885 -1.8002891126 -1.0683080586
O -6.8642660820 -2.7422307042 -1.0582579845
C -6.9330925645 -3.6182176147 0.0753257494
C -4.9259001384 -1.6133211729 -0.0632307289
C -2.5160694431 1.0255866998 1.0610518914
C -3.4656880210 1.8770405451 1.6644903827
C -3.1546344705 3.2082463145 1.7793635202
C -1.9502323065 3.7235290184 1.3070457377
O -1.9207547428 5.0823296328 1.4950296187
C -3.0545533630 5.3718035423 2.3401003815
O -3.9263788440 4.2210570971 2.2854169475
C -1.0137592447 2.9231126328 0.7059191248
C -1.3030030650 1.5446528064 0.5865624252
C -0.2148521898 0.6743347822 -0.0145658911
O 0.8015570625 0.4547674148 1.0084839774
C 2.0665500482 0.9301663345 0.6929718906
O 2.6583751836 0.0328397163 -0.2618861759
C 3.9604354104 0.4744556893 -0.6363160700
C 4.5158046918 -0.4471286930 -1.7068002366
O 5.8667419212 -0.0374982146 -1.9986261301
C 6.7151668989 0.0042729365 -0.8647737694
O 6.1991279971 0.8313744437 0.1759919873
C 4.8856635522 0.4160998955 0.5772147204
C 4.3583025068 1.3389453983 1.6562040427
O 5.1420377970 1.3394736264 2.8495602694
C 2.9042510507 0.9559096567 1.9697659853
O 2.3180558791 1.9019641577 2.8561767627
C 7.0548263313 -1.3786412433 -0.3664149944
C 7.0450555800 -2.5608858411 -1.0568655641
C 7.5311080493 -3.6580181273 -0.2936200155
C 7.9186404677 -3.2987248881 0.9677128764
S 7.6876222184 -1.6025793448 1.2416359972
H -1.4365242078 -0.4666400242 -1.3243667940
H 0.9861410087 -1.8776155213 -0.1011588690
H 0.4764751516 -1.8472798380 -1.8203465134
H -1.0501947766 -1.2319519663 1.5901556703
H -3.3693186088 -0.7727360239 1.8361781751
H -3.2540855869 1.0190768065 -1.4043587820
H -4.0989982792 2.5564347512 -2.8586526702
H -4.2476352348 2.2576802366 -4.6146008215
H -3.0106243317 1.3823152295 -3.6651088177
H -7.3799492177 -1.8925589292 -2.9395927832
H -6.0116322737 -4.2038719795 0.1704659131
H -7.1091868681 -3.0500690680 0.9956448722
H -7.7757201632 -4.2828115629 -0.1156296414
H -4.9217416990 -2.2434541740 0.8168384347
H -4.4149345459 1.4846314455 2.0151305225
H -3.5827910869 6.2449114558 1.9524668988
H -2.7095318247 5.5134017199 3.3728939678
H -0.0820527201 3.3308839417 0.3275739130
H 0.2502567177 1.1942492032 -0.8605091395
H 2.0226139347 1.9422664693 0.2501661536
H 3.9244745465 1.5087084483 -1.0165157699
H 3.9634331294 -0.3603650787 -2.6450655405
H 4.4826433419 -1.4876492641 -1.3561666655
H 7.6185972078 0.5206897269 -1.2065745673
H 4.9113772453 -0.6205085503 0.9529807241
H 4.3814472205 2.3735346928 1.2899500585
H 5.1952493767 0.4298048902 3.1773771728
H 2.8857822323 -0.0576208324 2.4059577464
H 2.9519433565 2.0414792768 3.5741688736
H 6.6976409803 -2.6378583613 -2.0804479180
H 7.5883908489 -4.6744915229 -0.6652843671
H 8.3158182064 -3.9243536638 1.7562109087
