47
CONF104
C -6.2496119645 0.9545652488 -1.7065939083
O -6.6981817405 0.5901733727 -0.3783982845
P -5.6740053257 -0.0544705134 0.6719661040
S -6.4648817748 -0.4150271305 2.3852355754
O -4.9769276314 -1.2979887242 -0.0933275086
C -5.5589567298 -2.6168676759 0.0047358125
O -4.4550237650 1.0165995154 0.5731684461
C -3.2870062170 0.8313991354 1.3204400262
C -3.2149303563 1.3377684411 2.6101242847
C -2.0264174443 1.2130871937 3.3190091413
C -0.9276017646 0.5686701053 2.7445137950
C -1.0215172599 0.0562110729 1.4484716102
C -2.2028186019 0.1954645296 0.7311709379
S 0.5340465510 0.3731758045 3.7553564359
C 1.8350905081 0.3160527154 2.5320797135
C 2.6826782927 -0.7910052218 2.4925405301
C 3.7304435887 -0.8360881896 1.5785512612
C 3.9069125740 0.2240170294 0.7036871487
C 3.0730274384 1.3364277010 0.7279938428
C 2.0414714233 1.3845505589 1.6546840348
O 4.9801261709 0.1847334955 -0.1882166698
P 4.7426119353 -0.2128123851 -1.7453454284
S 3.5810535205 -1.7159738560 -2.0904061264
O 6.2635033662 -0.3156368222 -2.2450361048
C 7.0038270341 -1.5385713266 -2.0311409064
O 4.3195313385 1.2126023430 -2.3481680677
C 3.8324450298 1.2944504670 -3.7076849048
H -5.5936668414 1.8274737838 -1.6551361219
H -7.1527585892 1.1956078810 -2.2682915929
H -5.7254633283 0.1192184495 -2.1809222168
H -6.5447268609 -2.6386103259 -0.4712541219
H -4.8749562540 -3.2830051910 -0.5229027734
H -5.6485019630 -2.9132870361 1.0533093728
H -4.0788732419 1.8283171513 3.0429026393
H -1.9518649515 1.6229441433 4.3210157317
H -0.1752115484 -0.4503111627 0.9975939860
H -2.2936393489 -0.1968722629 -0.2752638930
H 2.5122921683 -1.6234420590 3.1665331818
H 4.3913575832 -1.6932000332 1.5210859065
H 3.2472933168 2.1525236728 0.0360949465
H 1.3881744519 2.2494964622 1.6976234455
H 7.1703027057 -1.6968926974 -0.9609312478
H 6.4639065505 -2.3889288429 -2.4578233856
H 7.9589017814 -1.4000036275 -2.5385772173
H 3.5213642250 2.3299527475 -3.8487769270
H 4.6326123813 1.0457383151 -4.4114723686
H 2.9845684775 0.6177739591 -3.8471721276
