38
CONF29
O 0.5588359140 1.9403277481 1.6718769380
P 0.3931747061 1.0297049567 0.5223261457
O 0.3420354777 -0.4953855800 1.0372236522
C -0.1625284894 -1.5722870533 0.2889056134
C 0.2354889752 -1.8105747117 -1.0197000098
C -0.3099444298 -2.9043034881 -1.6899412437
C -1.2238376630 -3.7415462595 -1.0559743304
C -1.5934074734 -3.4903573630 0.2644639283
C -1.0634607562 -2.4000087914 0.9461485005
O 1.5167825630 1.1398635000 -0.6207207808
C 2.8646824413 1.3008190785 -0.2401339346
C 3.3992476021 2.5803500410 -0.2253998279
C 4.7457769931 2.7340217277 0.0947208272
C 5.5295374181 1.6215208628 0.3946342996
C 4.9677959066 0.3469838194 0.3730933840
C 3.6227563064 0.1760816105 0.0523858653
O -0.8719442516 1.2193769910 -0.4473612507
C -2.1536462016 0.7624902161 -0.0985665793
C -2.6689258457 0.9399282789 1.1783635067
C -3.9458765969 0.4521234304 1.4509938206
C -4.6876629714 -0.1833474628 0.4590409520
C -4.1540252389 -0.3289138140 -0.8206497650
C -2.8777838847 0.1433586349 -1.1080399416
H 0.9480146189 -1.1581004119 -1.5106797657
H -0.0120081402 -3.0984028426 -2.7153242792
H -1.6438839536 -4.5893878235 -1.5867910141
H -2.3028715734 -4.1398827723 0.7670829235
H -1.3484363495 -2.1758728171 1.9684178783
H 2.7693974632 3.4315471619 -0.4600375861
H 5.1803447595 3.7282708327 0.1097109001
H 6.5780163209 1.7479761268 0.6434588736
H 5.5752557411 -0.5220102963 0.6041760903
H 3.1695407335 -0.8093011418 0.0247967700
H -2.0884756195 1.4429239112 1.9446714462
H -4.3587066301 0.5773701944 2.4467335305
H -5.6807849852 -0.5598874021 0.6802324235
H -4.7282494450 -0.8198162046 -1.5997602063
H -2.4348359828 0.0242996081 -2.0907610048
