44
CONF46
C -4.2923104326 -1.2210803422 -2.5375024274
S -3.2248482101 0.1321451355 -3.0780581064
O -3.9020161879 1.4123375232 -2.8109225290
O -2.7681735385 -0.1882290356 -4.4406911493
C -1.7321805794 0.0212142742 -2.0053090546
C -1.6915116224 0.4943407689 -0.6800329462
C -0.4435729092 0.4337421688 -0.0443623652
C 0.6971183390 -0.0772162494 -0.6681835135
C 0.5936217919 -0.5741017816 -1.9635692304
C -0.6152342078 -0.5076957398 -2.6395877242
C 2.0491297275 -0.1339351910 -0.0166941242
O 2.6369576908 -1.1932041735 0.0758038093
C 2.6797456032 1.2073664716 0.3484904423
C 3.8117743406 1.4519575149 -0.6856117505
O 3.6399796432 2.2423933352 -1.5815726046
C 5.0784176562 0.6701441509 -0.4578614648
C 5.5647865538 0.8110304219 0.9926484842
C 4.4811809440 0.3939794180 2.0012039701
C 3.2441490279 1.2217550205 1.7835942023
O 2.7324401072 1.9235339495 2.6234076755
Cl -0.2625356249 0.9505137341 1.6256360549
C -2.9256673248 0.9945375791 0.0398781940
O -3.7953382658 -0.0836203567 0.4193120661
C -3.2576158415 -0.9225057114 1.4191383080
C -4.2681044625 -2.0202927984 1.6834815161
F -4.5269938472 -2.7420110014 0.5681604337
F -5.4409871650 -1.5387063847 2.1346350818
F -3.7795010978 -2.8683519220 2.6164935444
H -3.7371598221 -2.1570674129 -2.6298272035
H -4.6088609790 -1.0405088678 -1.5100971494
H -5.1397126072 -1.2080703997 -3.2287138112
H 1.4725669181 -0.9928093775 -2.4417920480
H -0.6965146868 -0.8454731577 -3.6658787019
H 1.9525602469 2.0128722792 0.2442340030
H 4.8587608548 -0.3876259799 -0.6540157758
H 5.8258938961 1.0150282755 -1.1754704711
H 5.8653172163 1.8481478711 1.1828370310
H 6.4507817247 0.1866311888 1.1364718046
H 4.8130189979 0.5316099973 3.0323152178
H 4.2274047348 -0.6604761967 1.8352106339
H -2.6445938005 1.5781718029 0.9219324260
H -3.5184521581 1.6169107512 -0.6288040755
H -2.3192839185 -1.4048203659 1.1065507843
H -3.0844356196 -0.3825606733 2.3615998662
