53
CONF141
C -2.2203485811 -1.5189233173 -4.6372803139
O -2.3296323743 -0.7837498371 -3.3936473245
C -2.7766321175 -1.4977319360 -2.3478529329
O -3.0627663926 -2.6678883239 -2.3802984863
C -2.9198024615 -0.5941702862 -1.1042243421
C -4.0293961099 0.4533904171 -1.3781694529
C -3.2552173290 1.6845844840 -1.7905983649
C -3.7376017426 2.8465302387 -2.3680913425
C -2.8326704050 3.8851324501 -2.5847332001
C -1.4863466378 3.7898263119 -2.2301109409
C -1.0121680311 2.6191050756 -1.6508592626
C -1.9000996859 1.5670230738 -1.4480419942
C -1.6992164916 0.2660754487 -0.8399371105
N -0.7824923045 -0.0180919026 0.0139835837
N -0.8911272100 -1.2101640397 0.6555316052
C -2.0337932532 -2.1167652123 0.4152130958
O -3.1848958545 -1.3736508464 0.0477489837
C 0.0008424057 -1.5389106985 1.6628983881
O 0.0119518104 -2.6490173046 2.1556505637
N 0.9411907452 -0.5257250115 2.0018813797
C 2.3141918901 -0.8910913452 2.0819236106
C 3.1313543700 -0.3596234049 3.0788006041
C 4.4692853498 -0.7228909727 3.1433035949
C 4.9683610179 -1.6265635267 2.2186592385
C 4.1668826307 -2.1799085731 1.2334026129
C 2.8344686899 -1.7985438981 1.1600923652
O 6.3081895990 -2.0528426985 2.3293779354
C 7.2200609703 -1.3268505499 1.6393101779
F 7.2659487667 -0.0345862011 2.0342714717
F 6.9800726104 -1.3178432583 0.3079380099
F 8.4202014665 -1.8748070977 1.8471260152
C 0.5518069804 0.8011249238 2.2314714895
O 1.2797430077 1.7596545011 2.1451588261
O -0.7361952659 0.8356043524 2.6367967860
C -1.3108887544 2.1577207422 2.6527827737
Cl -3.4090167261 5.3645729875 -3.3225295604
H -1.5205694202 -2.3496299038 -4.5209533345
H -1.8517474734 -0.7978128408 -5.3652505050
H -3.1983882937 -1.9067861672 -4.9316323751
H -4.5636079752 0.6251174397 -0.4362261543
H -4.7556039475 0.1210230720 -2.1247860937
H -4.7810267863 2.9615084381 -2.6395284544
H -0.8220250618 4.6254682552 -2.4156816001
H 0.0306962015 2.5232104482 -1.3671089172
H -2.2573854204 -2.6348660174 1.3476083484
H -1.7753621489 -2.8442286656 -0.3648082805
H 2.7258740532 0.3408007593 3.7982829747
H 5.1202995569 -0.3210051648 3.9107638370
H 4.5864832197 -2.8897473663 0.5304384883
H 2.1966912412 -2.2154478180 0.3883269095
H -0.7671507661 2.8029778736 3.3465485377
H -1.2800473258 2.5900691770 1.6478730584
H -2.3413751294 2.0193432928 2.9791841730
