65
CONF589
C -0.2555895579 4.1649626359 0.0146618734
C 0.3583519698 2.7978083666 0.3051356461
C 0.7579782973 2.6088595774 1.7878657091
C 1.8179442393 3.6043431073 2.2503973750
C 1.2485824941 1.1857415058 1.9408469525
O 2.4137190245 0.8390053564 1.8903371770
O 0.2158915999 0.3336604017 2.0806372620
C 0.5165465309 -1.1007261335 2.0912125069
C 0.8060050048 -1.5681832698 3.5088082988
C -0.3787020758 -1.3978382528 4.4735464266
C -1.6834651020 -1.6754678152 3.7933938914
C -1.8494303381 -1.8574537673 2.4697300310
C -0.6933538338 -1.8102771030 1.4900532590
C -1.1544113608 -1.2177775056 0.1395073470
C -2.3157498595 -2.0538495818 -0.4447135260
C -3.3810790236 -2.2660376922 0.5916543020
C -3.1594984153 -2.1469142070 1.9104221476
C -1.8853038699 -3.4003465180 -1.0532746502
C 0.0018583834 -1.0275138258 -0.8464762898
C -0.4280765192 -0.3703237969 -2.1585790546
C 0.7430676591 0.0764754582 -3.0123486347
C 0.3328412137 0.8587015250 -4.2412990115
C 1.5376503581 1.1033518093 -5.1410294580
C 2.1028476572 -0.2355292548 -5.5741971795
C 2.2319074488 -1.2653062579 -4.4770102033
O 2.9323725354 -2.2522247317 -4.5972263131
O 1.4921577148 -1.1455262868 -3.3602153409
O 2.5909348286 1.7878999857 -4.4434099632
C -0.4069440784 -0.0258094605 5.1735429758
H -0.6016102097 4.2125318135 -1.0225014103
H -1.1154988014 4.3518693391 0.6671642464
H 0.4650785526 4.9743359087 0.1615903890
H -0.3590040034 2.0133369281 0.0373171613
H 1.2493371097 2.6446560493 -0.3184224789
H -0.1488351519 2.7137026997 2.3964469101
H 2.6936457678 3.5693374046 1.5952622347
H 1.4174280930 4.6207825624 2.2398172595
H 2.1449528311 3.3797583268 3.2697751305
H 1.4008139757 -1.2579271307 1.4690446013
H 1.0631497047 -2.6319646180 3.4335113213
H 1.6908343087 -1.0506595702 3.8937948194
H -0.2588361456 -2.1458265438 5.2715473936
H -2.5633838173 -1.7201500242 4.4361146637
H -0.3626402245 -2.8446496114 1.3070475850
H -1.5713934445 -0.2235516890 0.3553183326
H -2.7690606238 -1.4666741416 -1.2556921118
H -4.3739274331 -2.5325868636 0.2336871046
H -3.9775160289 -2.2877014824 2.6150548500
H -2.7645555188 -3.9508207236 -1.4030116180
H -1.2154393189 -3.2606309567 -1.9073601472
H -1.3760964422 -4.0249450228 -0.3124539700
H 0.7615530623 -0.3809090985 -0.3917324185
H 0.4929097467 -1.9876547464 -1.0448965830
H -1.0626981743 -1.0359169019 -2.7557761421
H -1.0237958471 0.5257864612 -1.9370080724
H 1.4363645656 0.6751450612 -2.4086233058
H -0.4375747805 0.3159774349 -4.8036412810
H -0.1017816197 1.8098158023 -3.9128123408
H 1.2400996077 1.6790493158 -6.0281662432
H 1.4371772463 -0.6827658477 -6.3233120751
H 3.0824007522 -0.1225106402 -6.0457936004
H 2.2422926584 2.6336017042 -4.1330088003
H -0.5355543147 0.7830870721 4.4497012802
H 0.5267643988 0.1415522694 5.7209926603
H -1.2346527027 0.0198158627 5.8890513898
