85
CONF303
C 4.8197095534 2.2171891287 -4.0537217741
C 4.7443966533 0.7627236529 -3.5913942707
C 4.4787557563 0.5743798311 -2.1015174445
C 5.4492045840 1.2918514058 -1.1623798390
C 4.9768113679 1.0893402947 0.2799551610
C 3.5356740175 1.5601757438 0.4392242038
C 2.6159966355 0.8747418433 -0.5765903193
O 3.1163847513 1.0374429787 -1.8841033088
C 1.2029474396 1.4677406525 -0.6031253566
C 0.4122673000 1.0718605933 0.6318227917
C 0.4151302456 -0.4338922579 0.7830896054
C 1.8474162957 -0.9430861943 0.8345013958
O 2.5531428446 -0.5514231450 -0.3536567669
C 1.8974208631 -2.4693677847 0.9311483756
C 1.4036607198 -2.9164967231 2.2746645899
C 0.4474546842 -3.8073207306 2.5744038513
C -0.3279058211 -4.6301353336 1.5785925142
C -1.8266065794 -4.2299724207 1.4312325482
C -2.0124007598 -3.1889774258 0.3752301029
C -2.5976465035 -1.9871300233 0.5228875158
C -2.7837581374 -1.1082561125 -0.6126298891
C -3.3379616910 0.1147975643 -0.6864971616
C -3.4878888907 0.8745368485 -1.9625934179
O -4.7961921681 1.4835978773 -1.8816546342
C -5.1935402961 1.5772842553 -0.5008751180
C -4.0641009373 0.9327444473 0.3611847275
C -3.1777529840 2.0432693336 1.0392501720
C -3.1092073890 3.3224922879 0.2465389490
C -4.1999710231 3.8401745549 -0.3211397894
C -5.4803827915 3.0520631989 -0.2168434977
O -6.0223780388 3.2322535712 1.1056571375
C -4.2279406785 5.1359696629 -1.0641304992
C -1.8127170111 1.5149322081 1.4277550867
O -1.5379515846 1.0976144400 2.5364873181
O -0.9450057007 1.5793871209 0.4059739764
O -4.5880034411 0.1732418164 1.4449284176
C -2.6599644262 -5.4694625062 1.0614009777
C 0.1127956978 -4.0994817548 4.0143734333
C 6.8818798579 0.7988176271 -1.3546641060
H 3.9205427141 2.7708056522 -3.7666623002
H 5.6855819496 2.7323371725 -3.6264442947
H 4.9112569147 2.2656251961 -5.1431076295
H 3.9465375963 0.2411782775 -4.1336314394
H 5.6759966953 0.2421138231 -3.8397903412
H 4.5147298890 -0.5021711972 -1.8750094191
H 5.4040170869 2.3678566441 -1.3829288278
H 5.0573707227 0.0253724290 0.5426498154
H 5.6282854356 1.6414182646 0.9673037104
H 3.4745277595 2.6389520569 0.2509464068
H 3.1766098958 1.3952067827 1.4593789494
H 0.6932144245 1.0684073140 -1.4875507007
H 1.2671515102 2.5558120958 -0.6982835311
H 0.7963593833 1.5580848248 1.5359653669
H -0.0864931091 -0.8829402770 -0.0815163459
H -0.1166405013 -0.7453159915 1.6835925766
H 2.3578221509 -0.5268055585 1.7178931847
H 1.3181222765 -2.9018631660 0.1089437904
H 2.9455540647 -2.7735041755 0.7990233074
H 1.8989532731 -2.4242396871 3.1140173909
H -0.2966097285 -5.6722821665 1.9243577276
H 0.1389901872 -4.6148498491 0.5885435605
H -2.1932182132 -3.8356817661 2.3864222565
H -1.6692956033 -3.4772855685 -0.6223298954
H -2.9310554667 -1.6643365609 1.5059066423
H -2.4085694094 -1.5112655889 -1.5552895054
H -2.7249978101 1.6652115566 -2.0553696829
H -3.4496012332 0.2366691602 -2.8503894469
H -6.1084962536 0.9849990549 -0.3475542113
H -3.6919514796 2.2424821037 1.9852874926
H -2.1576936024 3.8450465214 0.2022239278
H -6.2007685772 3.4063454626 -0.9677626014
H -6.8998655724 2.8262130564 1.1201036449
H -4.9700458821 5.8141850385 -0.6245232175
H -4.5289984256 4.9738725223 -2.1067175590
H -3.2518419072 5.6273947022 -1.0518676007
H -5.0588995115 -0.5849837988 1.0712375677
H -3.7147724250 -5.2088782212 0.9320278583
H -2.2972655788 -5.9061876199 0.1236806173
H -2.5804587817 -6.2295026228 1.8457231692
H -0.9550513360 -3.9507962170 4.2144916987
H 0.6798736365 -3.4629696472 4.6983397538
H 0.3302393451 -5.1485476320 4.2526888799
H 6.9353676247 -0.2901332225 -1.2350285686
H 7.5415532367 1.2513830067 -0.6069316628
H 7.2721597231 1.0519491620 -2.3448459033
