48
CONF5
C -3.3111314869 1.5670948563 -1.8161482207
C -3.0392543470 0.8471842405 -0.4967353687
C -2.7505044641 1.7942242492 0.6832468842
C -3.2068091194 0.9645365821 1.8862035672
N -4.4519087315 0.2951765533 1.4492716563
C -4.2653322548 0.0004762501 0.0166865382
N -3.8867110266 -1.3901739550 -0.2476806344
C -2.5194550440 -1.4799168919 -0.4385496989
C -1.9640705288 -0.2075450066 -0.6401113533
C -0.6189378097 -0.0536420235 -0.9010058708
C 0.1764053122 -1.1989952251 -0.9429013848
C -0.3537704665 -2.4603604626 -0.7299191948
C -1.7174093245 -2.6195033859 -0.4738152795
O 1.5392621224 -1.1135679352 -1.2631454297
C 2.3427181750 -0.3950974233 -0.4033058823
O 1.9633405886 0.1628056842 0.5988439543
N 3.6174111097 -0.4365065186 -0.9022499577
C 4.7793518291 0.1380754182 -0.3642882281
C 4.8005989271 0.8557399579 0.8362170029
C 6.0044716259 1.3843878044 1.2899915172
C 7.1862231306 1.2146634515 0.5764220815
C 7.1582130942 0.4995001151 -0.6175227194
C 5.9672107935 -0.0350121213 -1.0866359834
C -4.6371176867 -2.4590760566 0.3753546758
C -5.6393745750 1.1117238179 1.7061616542
H -4.1458078032 2.2692114253 -1.7113494530
H -2.4282944576 2.1311720102 -2.1341601307
H -3.5536302038 0.8490367619 -2.6056951454
H -1.6960949372 2.0818404383 0.7312695280
H -3.3513741472 2.7070255271 0.5903550106
H -3.3857258586 1.5541126399 2.7900992689
H -5.1960365414 0.2293673158 -0.5202414168
H -0.1738957344 0.9251171560 -1.0468607507
H 0.3055250104 -3.3210518054 -0.7597079671
H -2.1254136977 -3.6083236588 -0.2980956345
H 3.7253971773 -0.9554078646 -1.7599605354
H 3.8881502890 0.9925401038 1.3985346350
H 6.0108385778 1.9388544657 2.2231551881
H 8.1167452394 1.6327495328 0.9444593651
H 8.0682101183 0.3546209784 -1.1908099113
H 5.9541489352 -0.5914016134 -2.0203485097
H -4.5080160689 -3.3870736408 -0.1924329863
H -4.3393635846 -2.6329915808 1.4202706671
H -5.7005785727 -2.2034987283 0.3635216231
H -5.7570067297 1.2492500224 2.7856788502
H -6.5296738371 0.5880727100 1.3426761217
H -5.6179233899 2.1120079764 1.2341827127
H -2.4499331801 0.2055329714 2.1224646575
