52
CONF47
C 1.5619948643 -2.6062574043 2.5122904952
N 2.0137384222 -1.6269660151 1.5205381182
C 3.4570355826 -1.8147323303 1.2916838271
C 3.9918657611 -0.8762065259 0.2192378292
C 3.7138257535 0.5731784958 0.6055796253
C 2.2232648724 0.7430012330 0.8812413048
C 1.7298411557 -0.2406890174 1.9478420631
C 0.2418470753 -0.0251091389 2.2694448331
C -0.7156170132 -0.4326428050 1.1407847534
N -0.9293038044 0.6434327284 0.1642901590
C -1.5210084031 1.8449283642 0.6009503406
C -2.2638385285 1.9210801867 1.7862170922
C -2.8105979031 3.1319741471 2.2029799616
C -2.6572738739 4.2822248833 1.4358763635
C -1.9456603714 4.2158560769 0.2401363585
C -1.3657494882 3.0159384675 -0.1586461204
S -0.3404622703 2.9614030229 -1.6131978118
C -0.7676879489 1.3279476755 -2.1648967859
C -0.9971217959 0.3259342953 -1.2004518706
C -1.2702159129 -0.9708002474 -1.6535320646
C -1.2707410345 -1.2363965525 -3.0188225742
C -1.0233766362 -0.2589051342 -3.9685427921
C -0.7956395445 1.0418426708 -3.5255302028
S -1.5675853869 -2.9469585757 -3.5736744588
O -1.2598956572 -2.9859161109 -5.0711851630
C -3.3992052120 -2.8966550455 -3.4379426637
H 1.9666440597 -2.4045612357 3.5229965449
H 0.4704934196 -2.6276504078 2.5795295471
H 1.8943297015 -3.6034283865 2.2069788304
H 3.6177330508 -2.8581112832 0.9955796119
H 4.0241412007 -1.6515971311 2.2324026031
H 3.5044361885 -1.1044316980 -0.7377940032
H 5.0662417694 -1.0520362861 0.0916959500
H 4.0388689815 1.2586658209 -0.1852738202
H 4.2854023331 0.8250970519 1.5099132810
H 1.9999607515 1.7632289911 1.2156400549
H 1.6619542700 0.5785905618 -0.0465780203
H 2.2872136131 -0.0272743419 2.8863440525
H -0.0303356424 -0.5841053991 3.1699370490
H 0.1086828066 1.0313238999 2.5225858298
H -0.2561985952 -1.2660555322 0.6063465420
H -1.6712789754 -0.7939902796 1.5465481326
H -2.4074677033 1.0372954553 2.3961513603
H -3.3679367326 3.1666617516 3.1336308928
H -3.0884507734 5.2240829192 1.7577217432
H -1.8177160961 5.1005895336 -0.3758923666
H -1.4879237194 -1.7672564477 -0.9501335022
H -1.0145316272 -0.5066202073 -5.0242327366
H -0.6129154806 1.8373350561 -4.2414881256
H -3.6706370227 -2.7280757682 -2.3922970463
H -3.7662257860 -2.0895545906 -4.0772880486
H -3.7669176991 -3.8686284749 -3.7756943748
