119
CONF240
C 2.7281950010 -1.2730345795 1.8017170355
C 3.4413285309 -2.5044803993 1.2313431473
C 4.9255535620 -2.2422745902 0.9805416598
C 5.6323726573 -1.7426045175 2.2472434418
C 4.9240367110 -0.4995390137 2.8236658909
C 5.6774165108 0.0293561872 4.0484485878
C 7.1215171617 0.3448061024 3.7002460984
O 7.8000874288 0.9980517086 4.7861946266
C 7.9052002070 -0.8979381321 3.2051174768
C 8.0992052308 -1.9033270001 4.3384864058
C 9.2486144059 -0.3452970014 2.5512407768
C 9.0077861379 -0.3605036618 1.0178788974
C 7.5104353121 -0.6317695914 0.8194781681
C 7.1381939985 -1.5357145299 1.9986480479
O 7.6422938830 -2.8698989603 1.7522575745
C 10.4928313213 -1.0369717091 2.9846177492
C 11.1715086714 -2.0721800945 2.4600693374
C 12.3321104047 -2.3639263933 3.2970061678
O 13.1882471916 -3.2169527976 3.1874302975
O 12.3528369608 -1.4665802867 4.3402714783
C 11.2277632581 -0.5807961822 4.2072303817
C 3.4121802591 -0.7701085451 3.1031034928
C 3.2265512399 -1.8098174957 4.2218110942
C 2.6732945173 0.5063183628 3.5630586328
C 2.5839641757 1.6010912321 2.5024848869
C 1.9128301578 1.0859883236 1.2386286877
C 2.6018649200 -0.1753700990 0.7319889358
O 0.5258533338 0.7996420643 1.5774927277
C -0.3604985808 0.9346762999 0.5136684655
C -1.6530665560 0.2210265539 0.8592051061
C -2.7092017030 0.4539648222 -0.2141078745
O -2.3161585390 -0.2617480260 -1.3884714690
C -2.8419567007 1.9602054950 -0.4967782078
O -3.6602188829 2.2382674424 -1.6485713493
C -4.9827798310 1.7949278387 -1.5754489057
C -5.8572499792 2.6837293396 -2.4379758645
C -7.2790726346 2.1419890569 -2.4975545812
O -7.8682965113 2.3273998791 -1.2028399017
C -7.2787922463 0.6552945527 -2.8736159549
O -8.5993398097 0.1174384769 -2.6703205502
C -9.3173710697 -0.1503501499 -3.8421360264
C -10.5651981573 -0.9288779057 -3.4745906037
C -11.4436405566 -1.1281021164 -4.7081181926
O -10.8054617397 -1.9866380236 -5.6748085653
C -11.6867831500 0.2004688255 -5.4251571053
O -12.4211022256 -0.0039021943 -6.6313543797
C -10.3623201599 0.9329408721 -5.6914080827
C -10.5662806873 2.3131078593 -6.2770642077
O -9.6712196495 1.1018631969 -4.4367819747
C -6.3125801569 -0.1522279430 -2.0035411495
C -6.1769855442 -1.5898333444 -2.4569296140
O -5.0104683678 0.4530416642 -2.1006051920
C -1.4796944754 2.5982310624 -0.7810522487
C -1.5555462266 4.1010964136 -0.9529757745
O -0.6181237333 2.3403949618 0.3383146507
H 1.7059091000 -1.5661118847 2.0793658302
H 3.3328950562 -3.3485409502 1.9235639531
H 2.9527194721 -2.8049902648 0.2955910353
H 5.4129492488 -3.1543143249 0.6233446701
H 5.0380413131 -1.4945878700 0.1858371020
H 5.5742040985 -2.5425820065 2.9984857092
H 4.9748315023 0.2865093973 2.0571139955
H 5.6458967064 -0.7010849536 4.8669325313
H 5.2173501761 0.9514048848 4.4175827183
H 7.1271386531 1.0929632732 2.8976644819
H 7.6326124169 0.4896910901 5.5900692225
H 7.1438585531 -2.3530018618 4.6221086571
H 8.7653699293 -2.7124706942 4.0355609804
H 8.5250827217 -1.4330863197 5.2295504328
H 9.3496048828 0.6892903046 2.8962695678
H 9.6007001082 -1.1480533851 0.5417829204
H 9.3271387361 0.5789577788 0.5598640049
H 7.2984428372 -1.1138853513 -0.1381344984
H 6.9348606693 0.2988600697 0.8551446366
H 8.5344857122 -2.8070290726 1.3905159940
H 10.9627686421 -2.6472773664 1.5686650441
H 11.5926295324 0.4479896748 4.0910717761
H 10.6219952781 -0.6338048851 5.1185636686
H 3.5254656072 -1.3967784732 5.1906941110
H 3.7971129094 -2.7266937162 4.0586443035
H 2.1681429911 -2.0839665248 4.2937792250
H 3.1308796929 0.9031616619 4.4756503483
H 1.6544021559 0.2084106428 3.8415815473
H 3.5828952887 1.9679788323 2.2357366096
H 2.0209148166 2.4587529513 2.8872892947
H 1.9235799022 1.8638314459 0.4642438166
H 2.0500631552 -0.5781266090 -0.1271160759
H 3.5869953843 0.1198138568 0.3518791296
H 0.0736442416 0.5465281265 -0.4248755490
H -1.4740518364 -0.8536981838 0.9661582148
H -2.0092459822 0.6104443134 1.8197601678
H -3.6751629594 0.0711786632 0.1472894843
H -3.0747937825 -0.2050083279 -1.9911398225
H -3.2821288805 2.4451974572 0.3898808859
H -5.3338932545 1.7708589615 -0.5301404516
H -5.4289066053 2.7103580846 -3.4461805187
H -5.8680456600 3.7029135477 -2.0384167257
H -7.8576529492 2.6922958813 -3.2520719141
H -8.7224638256 1.8730796298 -1.2232956575
H -6.9827745070 0.5511986956 -3.9272105727
H -8.6889264686 -0.7123703569 -4.5558860633
H -10.2933200885 -1.9000424518 -3.0465190922
H -11.1167736880 -0.3600699697 -2.7162123533
H -12.4124974869 -1.5564887068 -4.4176417468
H -10.8890952771 -2.8970981233 -5.3676238247
H -12.3044049362 0.8366441218 -4.7785806049
H -12.0162547545 -0.7689527267 -7.0662645985
H -9.7426744534 0.3198744569 -6.3670972977
H -11.1668282242 2.9273831272 -5.5977598590
H -11.0853018249 2.2411641709 -7.2355106272
H -9.6021130964 2.8038383211 -6.4368251327
H -6.6558441562 -0.1098759651 -0.9573335528
H -5.8007652807 -1.6283365167 -3.4846154263
H -7.1491111168 -2.0879261027 -2.4195809133
H -5.4831211383 -2.1291321106 -1.8058672888
H -1.0559742819 2.1320834086 -1.6858157596
H -0.5545825692 4.5090875425 -1.1191867266
H -1.9800544965 4.5641847243 -0.0559183042
H -2.1834842971 4.3549027052 -1.8096666002
