33
CONF16
C -6.7004368535 1.2366220669 0.3931400403
C -5.3773773242 1.5084825844 1.1088302407
C -4.2387039794 0.7292682404 0.4554831194
S -2.6838109084 1.0696589067 1.3745481078
C -1.4213394300 0.2380570018 0.4253143996
C -1.7101478490 -0.6498162604 -0.6281381225
C -0.6945844813 -1.2893803143 -1.3359248411
C 0.6264683100 -1.0413453852 -0.9747640875
C 0.8954877710 -0.1510083975 0.0910505302
C -0.0974616742 0.5028804404 0.8013355199
N 2.2745149996 -0.1201565550 0.1925225933
C 2.7506491905 -0.9595228602 -0.7777332487
N 1.8133792663 -1.5351567637 -1.5031263237
N 4.0947052287 -1.1880680374 -0.9854227485
C 5.1190245993 -0.6207695131 -0.2666606464
O 4.9759737358 0.1653938625 0.6556192478
O 6.2983951318 -1.0630497016 -0.7330142849
C 7.4640554224 -0.5322437791 -0.0521938568
H -7.5146901279 1.8007482688 0.8572629784
H -6.9574188411 0.1730598368 0.4357382953
H -6.6423135885 1.5295833201 -0.6603930673
H -5.4608514398 1.2239292329 2.1645104249
H -5.1514864120 2.5807658074 1.0815892654
H -4.1080180894 1.0394645581 -0.5869864594
H -4.4496421357 -0.3449918126 0.4835751876
H -2.7377016233 -0.8511742583 -0.9038714075
H -0.9340232322 -1.9680671078 -2.1485067002
H 0.1372431465 1.1905036163 1.6077642090
H 2.8513233142 0.4023013698 0.8365818335
H 4.3251398983 -1.8284711616 -1.7332472939
H 8.3153045538 -0.9930786739 -0.5506584203
H 7.4402556770 -0.8087012283 1.0040725577
H 7.4980892418 0.5542829878 -0.1575758506
