36
CONF253
C 3.4282042962 3.4622466687 -1.7457284365
C 2.7946538817 2.4726331640 -0.7588789662
C 2.1197719154 1.3321843617 -1.4563493458
C 0.8219961904 1.0349058290 -1.3650667239
C 0.1597381110 -0.1099096238 -2.0701446448
C -0.2050636601 -1.2913131643 -1.1498727293
C -1.1514779163 -1.0026550977 0.0309482651
C -1.9185198901 -2.3280760863 0.2316393186
C -2.1242793979 -2.8651078628 -1.1836302446
C -0.9043293494 -2.3931979681 -1.9438094840
O -0.5395372832 -2.8041784741 -3.0296838448
C -0.4302952383 -0.5528064466 1.2963251962
C -1.3690849652 -0.1443825314 2.4024262303
O -2.5232696275 0.2068981570 2.2560455143
O -0.7530003615 -0.1798563358 3.5999771523
C -1.5480115474 0.2618847378 4.7293823579
H 3.9500694995 4.2645515859 -1.2150071630
H 2.6633216372 3.9139644627 -2.3855925355
H 4.1526783682 2.9556979924 -2.3923342593
H 2.0727869826 2.9901885105 -0.1160617900
H 3.5830295377 2.0783656545 -0.1025566220
H 2.7564686184 0.7170969241 -2.0970283992
H 0.1836515032 1.6598244684 -0.7385382655
H 0.8136905759 -0.4878934454 -2.8631048824
H -0.7664665479 0.2400813522 -2.5467448332
H 0.7255074116 -1.7400663326 -0.7649970718
H -1.8629605273 -0.2244458992 -0.2758720034
H -2.8521329974 -2.1867280147 0.7802939869
H -1.2898543070 -3.0225494306 0.8033304375
H -2.9901202544 -2.3832046469 -1.6622443509
H -2.2614468852 -3.9459988269 -1.2695833844
H 0.2364722461 -1.3416785693 1.6618179703
H 0.2079137798 0.3184849941 1.0996362420
H -1.8556825625 1.3010731582 4.5904462921
H -0.8951257236 0.1679924671 5.5961330264
H -2.4292952055 -0.3740263350 4.8413515842
