42
CONF7
C 0.8995420800 -4.8418286856 -0.6574642425
C 1.3726610855 -3.7030560924 0.2420958528
C 1.1541505996 -2.3271771571 -0.3808474719
C -0.3226593642 -2.0694887418 -0.7143583867
O -0.7519800181 -2.2508877263 -1.8546629166
N -1.0808065918 -1.6785473259 0.3311757175
C -2.4285257823 -1.1319682449 0.1526186189
C -2.3794581663 0.3285952348 -0.2401209197
C -1.9723124524 1.2896634649 0.6904048234
C -1.8785428736 2.6291855423 0.3286376484
C -2.1922145374 3.0252720185 -0.9710680139
C -2.6000744700 2.0749876015 -1.9029698717
C -2.6915588723 0.7321502487 -1.5386988453
O 1.6456541638 -1.3716502579 0.5811123964
C 1.6052419836 -0.0441359556 0.2439807363
C 1.8508207088 0.8418346746 1.2939253831
C 1.8153638603 2.2124566809 1.0697150032
C 1.5274201873 2.6783717526 -0.2109938393
C 1.2950299285 1.8148695234 -1.2599687822
C 1.3321451757 0.4412862440 -1.0362654813
F 1.4623413837 4.0128474290 -0.4287575808
C 2.0586387686 3.1858925572 2.1832958653
F 0.9787794749 3.9787473085 2.4098373929
F 3.0983335654 4.0160215402 1.9142319551
F 2.3409813176 2.5663843719 3.3494629548
H 1.3899877600 -4.8023745825 -1.6354158705
H 1.1368855157 -5.8043563479 -0.1969168564
H -0.1815045211 -4.8028380362 -0.8201508650
H 2.4448999288 -3.8006562509 0.4447147559
H 0.8523823389 -3.7342710651 1.2064302919
H 1.7157154760 -2.2477876302 -1.3199433757
H -0.6047211695 -1.4658738013 1.1972470141
H -2.9390840551 -1.7178014386 -0.6150987220
H -2.9642825365 -1.2585667127 1.0982147566
H -1.7250658786 0.9851799740 1.7047240659
H -1.5598286743 3.3660125681 1.0596642583
H -2.1178466996 4.0707039084 -1.2543838507
H -2.8461794786 2.3769005054 -2.9165414475
H -3.0065838149 -0.0092307474 -2.2675514381
H 2.0594971797 0.4478909347 2.2814281759
H 1.0699533915 2.2125527312 -2.2431847756
H 1.1368038866 -0.2253106227 -1.8668618110
