47
CONF168
C -6.8515829223 -0.7369861447 -1.5996249022
O -6.7688448716 -0.9250568125 -0.1692742734
P -6.0356128394 0.1891823863 0.7262990562
S -6.5296020261 2.0312020962 0.5224280963
O -6.2687931485 -0.3940289795 2.1996998466
C -5.8745336055 -1.7525519813 2.5181419979
O -4.4837787152 -0.2009060150 0.3582125652
C -3.3852209573 0.5573210011 0.7388789508
C -2.3373927891 0.6314930062 -0.1734662865
C -1.1874334795 1.3314149651 0.1573642386
C -1.0753443843 1.9423588738 1.4093905147
C -2.1308442781 1.8547146560 2.3169892006
C -3.2947612506 1.1693422238 1.9830687325
S 0.3545893192 2.9158844858 1.8570556045
C 1.7058794853 1.8919555419 1.2934913213
C 2.8013730509 2.5162680277 0.6942761753
C 3.9026521884 1.7663768681 0.2950532824
C 3.8848427886 0.3923803984 0.4807572327
C 2.8019429685 -0.2464703302 1.0711115928
C 1.7165531853 0.5082965475 1.4915349532
O 5.0006442993 -0.3639880586 0.1103950547
P 5.1422039327 -0.9321170266 -1.4034580899
S 3.5892032641 -1.7903378136 -2.1668260151
O 6.4743219879 -1.8131687012 -1.2491042528
C 6.3825539977 -3.1622944015 -0.7391625790
O 5.7172309330 0.3673714894 -2.1475428087
C 5.8127317041 0.3810277788 -3.5905584618
H -7.3189932439 0.2256717950 -1.8271361651
H -7.4684176447 -1.5545892240 -1.9737519840
H -5.8533667940 -0.7863551738 -2.0459851512
H -6.4712716542 -2.4649015632 1.9427851206
H -4.8098340925 -1.8999475417 2.3123553903
H -6.0693249527 -1.8730848807 3.5841337190
H -2.4393152258 0.1504171209 -1.1398971621
H -0.3739741160 1.4017817319 -0.5567014720
H -2.0431617706 2.3189433830 3.2935875558
H -4.1148380634 1.1075647274 2.6897206247
H 2.7888555388 3.5888603279 0.5315606084
H 4.7611756554 2.2333460024 -0.1737443843
H 2.8199296281 -1.3227406207 1.1982170533
H 0.8700323639 0.0221991943 1.9641102464
H 5.6786712262 -3.7475365184 -1.3381593220
H 7.3874415963 -3.5783422371 -0.8173966984
H 6.0654323170 -3.1497536887 0.3084287145
H 4.8403247465 0.1541411478 -4.0367107237
H 6.1280941872 1.3903235827 -3.8566912408
H 6.5595613443 -0.3446814242 -3.9268094321
