40
CONF6
C 1.2221476001 -1.7371438911 -0.7478532070
O 2.5045202350 -1.0438440300 -0.5146637534
C 2.2011296190 0.1594225306 0.0674014105
C 3.1035459935 1.0027451974 0.7035932591
O 4.4543600054 0.7729304107 0.7425265606
C 2.5688469961 2.1085931299 1.3754745383
C 1.1904077460 2.3204333609 1.4500311237
C 0.2923450921 1.4606254145 0.7998224707
C 0.8517217114 0.4402688368 0.0552395560
C 0.1167837051 -0.6536717972 -0.6639451944
C -0.3700541443 -0.2185907047 -2.0557318535
C -1.3805945630 0.9181843118 -1.9664236799
N -2.4628509957 0.5786301597 -1.0374640598
C -3.5047459095 1.6023645278 -1.0510535395
C -1.9560686423 0.2893561239 0.3191985285
C -1.2025134881 1.4691486499 1.0048753908
C -1.1009322358 -0.9937523138 0.2241820380
C -0.6260284268 -1.5320541506 1.5431818696
C 0.3976554624 -2.3873609557 1.5685840011
C 1.0039876300 -2.8688357744 0.2821175503
O 2.1983635496 -3.5911994216 0.5766915045
H 1.3091231866 -2.1702738914 -1.7485171070
H 4.6505997273 -0.0360295304 0.2501126588
H 3.2536373971 2.7760781903 1.8905660687
H 0.8160005527 3.1463152597 2.0488639443
H 0.4864602232 0.0963082387 -2.6632641417
H -0.8299509253 -1.0863974592 -2.5455709119
H -0.8688452689 1.8558148419 -1.6728262602
H -1.8209035961 1.0965239443 -2.9546270698
H -3.9518273453 1.6461459249 -2.0504334188
H -4.2895303130 1.3403550674 -0.3333491120
H -3.1388440683 2.6168167725 -0.8078714738
H -2.8371815094 0.0634015890 0.9329774382
H -1.3929471405 1.4218379194 2.0845779174
H -1.6421131034 2.4174998865 0.6735746842
H -1.7157631529 -1.7521827588 -0.2843290449
H -1.1134105144 -1.2080430544 2.4601390988
H 0.7793279109 -2.8116116020 2.4934215238
H 0.2712307161 -3.5416685466 -0.2013258900
H 2.5329101774 -3.9671402105 -0.2479037092
