74
CONF72
C -0.5290336927 -0.7840338152 -0.6539295936
C 0.3242982721 -1.7967384074 -1.4090323841
O -0.5341731328 -2.9732761677 -1.5136425570
C -1.4922083358 -2.9573064461 -0.5430109733
O -2.2592680362 -3.8705943226 -0.3860995779
C -1.3355259932 -1.6844807701 0.2643079790
C -2.5700916508 -0.9549493478 0.8004625799
C -3.6265204394 -0.6956576756 -0.2686223919
C -3.7260952876 0.5403736981 -0.9096366760
C -4.6721098510 0.7449638810 -1.9164691887
O -4.8500499337 1.9160941914 -2.5913962116
C -4.0151541995 3.0073158396 -2.2265323043
C -5.5209154139 -0.2992121232 -2.2966876754
O -6.4353179555 -0.0971552248 -3.2844086073
C -5.4140013944 -1.5325894408 -1.6449427965
O -6.2953313478 -2.4770236974 -2.1052265994
C -6.1553952984 -3.8013972871 -1.5879032732
C -4.4857028984 -1.7338708820 -0.6298085345
C -2.0872693068 0.3344297643 1.4488505845
C -2.9538515318 0.9493201780 2.3753598557
C -2.5553801231 2.1320777310 2.9433085793
C -1.3417602349 2.7309724283 2.6167916634
O -1.2162682131 3.9223381288 3.2860118499
C -2.2973292530 3.9335369327 4.2339507934
O -3.2374704247 2.9224561279 3.8312901153
C -0.4864156523 2.1660693226 1.7075896827
C -0.8691261255 0.9425136691 1.1127212294
C 0.1301796659 0.3136300692 0.1580406434
O 1.2181827145 -0.2351400613 0.9555574833
C 2.4868545523 0.2584038393 0.6757451087
O 2.9839383184 -0.3635066870 -0.5120549272
C 4.3026180769 0.1026102247 -0.7951518781
C 4.7915856130 -0.5131090703 -2.0963199701
O 6.1341386824 -0.0892871108 -2.3237547852
C 6.9918906167 -0.4445749075 -1.2456349295
C 8.3746564662 0.0576426263 -1.5631796698
O 6.5718892568 0.1510018615 -0.0256338763
C 5.2683310817 -0.3005297947 0.3225118331
C 4.8244729659 0.3111547146 1.6338825620
O 5.6548924026 -0.1656716631 2.6804906624
C 3.3674855906 -0.0798696994 1.8756099985
O 2.9345916106 0.6341240386 3.0295870500
H -1.2247653264 -0.3060480171 -1.3573105628
H 0.5899593097 -1.4973745633 -2.4245319892
H 1.2257815312 -2.0725860322 -0.8561575559
H -0.7037336180 -1.9656810708 1.1232525317
H -3.0288530527 -1.5789567941 1.5770542109
H -3.0764960564 1.3496940083 -0.6018455408
H -2.9549282701 2.7774596623 -2.4002438259
H -4.3147603357 3.8372126888 -2.8680749686
H -4.1579869356 3.2885863502 -1.1744198741
H -6.9092081974 -0.9325434196 -3.4002243057
H -6.3919911874 -3.8310894251 -0.5171285608
H -6.8731426727 -4.4129895816 -2.1358813861
H -5.1392047863 -4.1802021246 -1.7496000597
H -4.3968030307 -2.6936417022 -0.1391474599
H -3.9120942571 0.5013310838 2.6151160271
H -1.9070525297 3.6884034335 5.2332617084
H -2.7864466032 4.9110222809 4.2149641878
H 0.4547214539 2.6418300355 1.4529649540
H 0.5494584943 1.0864190997 -0.5006798484
H 2.4653566292 1.3563442469 0.5239596995
H 4.3123132752 1.2017781234 -0.8915246195
H 4.1974651968 -0.1760739835 -2.9498854490
H 4.7288643872 -1.6125945166 -2.0282132640
H 6.9626820187 -1.5458516461 -1.1237308384
H 8.3482902863 1.1439174665 -1.6777495905
H 8.7284400774 -0.3934250022 -2.4924475110
H 9.0559025722 -0.2014513898 -0.7503248814
H 5.2640996230 -1.4015925091 0.4206844579
H 4.8898969606 1.4103992131 1.5530101104
H 5.2790772142 0.1635368900 3.5065738067
H 3.3143404262 -1.1688747217 2.0363851679
H 2.0125765393 0.3919883682 3.1863771681
