49
CONF66
C -1.2144016972 -2.4337970590 4.3137548261
C -0.2441257382 -1.5978245879 3.7636684722
C -0.3614041396 -1.1498246000 2.4522737866
C -1.4711220996 -1.5373496673 1.7012176918
C -2.4562722051 -2.3594330777 2.2428399820
C -2.3142013944 -2.8166875486 3.5496486684
N -1.6132087824 -1.1081479795 0.3485713572
C -1.5143913106 -1.9743989949 -0.7308369666
O -1.7314135597 -3.1716819807 -0.6829033190
C -1.0026609696 -1.1719351867 -1.9083485564
C -0.8224832599 0.2261817231 -1.3567052515
O -0.5121210844 1.2321340127 -1.9724986835
N -1.1102388306 0.1742006243 -0.0075944098
C -1.4635325966 1.2993959371 0.7867618789
C -2.7071726708 1.3634869018 1.4151342871
C -3.0187897211 2.4809881257 2.1823104979
C -2.1070098855 3.5272257882 2.3102865669
C -0.8696909212 3.4503037759 1.6744861859
C -0.5347844201 2.3300114735 0.9209549436
C 0.3085508511 -1.7478815355 -2.4725500208
C 1.3418227562 -1.9872820330 -1.3721934736
S 3.0818796193 -1.8336273376 -2.0031238659
O 3.1015471733 -2.4760767523 -3.3917430963
C 3.0473322856 -0.0290294948 -2.2597734989
C 3.0065426906 0.4680592022 -3.5553641445
C 3.0039178336 1.8495572237 -3.7448694629
C 3.0525350810 2.7072386811 -2.6488299750
C 3.1099168562 2.1896649645 -1.3545940939
C 3.1138022839 0.8131945206 -1.1522209277
H -1.1152695310 -2.7814611849 5.3368325935
H 0.6154498765 -1.2969480339 4.3538578876
H 0.3984006721 -0.5091527097 2.0173417685
H -3.3205975364 -2.6299432961 1.6472206044
H -3.0764822587 -3.4616655723 3.9745675178
H -1.7559615574 -1.1342004839 -2.7040179811
H -3.4197021732 0.5530809072 1.3055956164
H -3.9836469948 2.5346079887 2.6761976345
H -2.3583058059 4.3967944181 2.9086456589
H -0.1514437949 4.2572705560 1.7776689805
H 0.4358487673 2.2464283420 0.4451645069
H 0.0937666663 -2.6809315454 -2.9967193999
H 0.6765738666 -1.0308817253 -3.2142490112
H 1.2771625298 -1.2663574741 -0.5482514502
H 1.2724481939 -2.9950854386 -0.9518793638
H 2.9751911911 -0.2174967776 -4.3962978646
H 2.9644768391 2.2528469965 -4.7518244847
H 3.0521668908 3.7817163230 -2.8015370159
H 3.1560091146 2.8582038882 -0.5007681673
H 3.1650918893 0.4065108092 -0.1456463320
