47
CONF101
C 4.4584578657 -3.6684802610 3.0401193528
C 4.3723949923 -3.1155489511 1.6114467364
C 4.1270144911 -4.2452553673 0.6022354244
C 3.3164662754 -2.0355757123 1.4950968217
C 1.9701810970 -2.3103341036 1.7625143015
C 0.9959567606 -1.3234069498 1.6516071461
C 1.3826288785 -0.0480388367 1.2652016831
C 2.7037642790 0.2656779493 0.9944788797
C 3.6636858435 -0.7369289561 1.1136439815
O 0.4097449386 0.9734730383 1.1954419726
P -0.3797806356 1.2017859238 -0.1815090592
O 0.4229244534 1.1585422723 -1.4231297727
O -1.1583736211 2.5719464017 0.1205492746
C -0.5114689288 3.8022975421 -0.1170185137
C -0.6769078641 4.4121417301 -1.3516962877
C -0.0809858068 5.6527175281 -1.5647788379
C 0.6635387420 6.2585581681 -0.5542493347
C 0.8126471964 5.6249701283 0.6775715594
C 0.2216198943 4.3841460177 0.9071489768
O -1.5629857065 0.1254124981 -0.0575815789
C -2.3343792084 -0.1920774238 -1.1939552492
C -1.9526559370 -1.2748300259 -1.9720275036
C -2.7448469142 -1.6202607641 -3.0640822485
C -3.8923684479 -0.8869673807 -3.3607344391
C -4.2539676385 0.1955998260 -2.5618041482
C -3.4730301369 0.5529861773 -1.4644957168
H 3.5247765203 -4.1663826853 3.3234695095
H 4.6517627911 -2.8684585452 3.7616618027
H 5.2670279386 -4.4031462557 3.1133238374
H 5.3360455362 -2.6502099493 1.3700597815
H 4.9338867558 -4.9835969280 0.6559092046
H 3.1839563208 -4.7608584695 0.8146493060
H 4.0810626458 -3.8571614299 -0.4201450712
H 1.6692709217 -3.3089925533 2.0646209888
H -0.0468489697 -1.5347542857 1.8630654542
H 2.9718730451 1.2738383567 0.6961681123
H 4.7033822538 -0.5016242815 0.9036062793
H -1.2603185427 3.9207799651 -2.1231264237
H -0.2005693982 6.1446093986 -2.5247040207
H 1.1254821074 7.2251580712 -0.7262449538
H 1.3887411910 6.0954080957 1.4678452156
H 0.3209958081 3.8771464761 1.8608031569
H -1.0547414738 -1.8300852790 -1.7220088203
H -2.4614770796 -2.4652684094 -3.6832497853
H -4.5056210858 -1.1606447713 -4.2129631035
H -5.1486506012 0.7667013793 -2.7877920304
H -3.7410317030 1.3886099332 -0.8269411279
