71
CONF264
C 6.4956283938 1.3238878028 1.2109096891
C 6.7485147959 -0.1521517185 1.0837733575
C 5.7903990510 -1.0815387773 1.5234308250
C 5.9937706195 -2.4657283734 1.4057824274
C 7.2046789625 -2.9048262823 0.8621819266
C 8.1699024647 -2.0017951436 0.4324950645
C 7.9373684023 -0.6336147911 0.5352767466
C 4.9446579109 -3.4570505275 1.8182195821
N 4.5781823484 -0.5807219377 2.0678450324
C 4.1576944335 -0.7685202968 3.3432372465
O 4.7525992704 -1.4402710973 4.1852781823
C 2.8783342223 -0.0166056391 3.7025200789
N 2.1243186829 0.4569640869 2.5490683678
C 1.3069965491 -0.6174689733 1.9685398837
C 0.5870238590 -0.1231490866 0.7250745075
N -0.2799094553 1.0148621843 1.0515819822
C 0.5390146720 2.0831897987 1.6351747709
C 1.2587468253 1.5954055708 2.8821920195
C -0.9902836017 1.5141061729 -0.1327300401
C -2.0446449691 0.5460115126 -0.6608971953
C -2.8824364330 1.1854822120 -1.7673303053
C -3.8938282924 0.2029217121 -2.3793975597
C -4.9000541068 -0.2683059100 -1.3412853369
C -4.8763866520 -1.5800611318 -0.8654240329
C -5.7798154911 -2.0140688352 0.1036367375
C -6.7049903424 -1.1061380893 0.5849423583
C -6.7661813392 0.2051993515 0.1413269945
C -5.8561694198 0.6136638420 -0.8280580514
F -7.5938637218 -1.5171019450 1.5291564575
C -4.6134449350 0.7397120089 -3.6065054676
C -5.2005871376 -0.1733770106 -4.4907166055
C -5.9053932864 0.2496742224 -5.6116103553
C -6.0167558660 1.6124520098 -5.8353718351
C -5.4533470427 2.5521790815 -4.9930517430
C -4.7499632906 2.1032017813 -3.8749903693
F -6.7038985882 2.0391972807 -6.9289696937
H 6.2425137274 1.5940950531 2.2419392355
H 7.3775083730 1.8919862148 0.9076629136
H 5.6559398343 1.6434837148 0.5820150197
H 7.3782980149 -3.9727004646 0.7634792315
H 9.1015223284 -2.3639146185 0.0086603933
H 8.6882355206 0.0741868568 0.1960806957
H 5.1366413938 -4.4282463406 1.3564543925
H 3.9452509886 -3.1190192792 1.5257728257
H 4.9312798370 -3.5849915550 2.9054623045
H 4.0340995094 0.0995109463 1.5435665478
H 2.2909267685 -0.6695609327 4.3715346505
H 3.1988319867 0.8448119269 4.3034863405
H 1.9568521762 -1.4585797462 1.7001593823
H 0.5644436124 -0.9842922785 2.7025282208
H -0.0183050214 -0.9424688637 0.3257318911
H 1.3346635903 0.1541781947 -0.0462283302
H 1.2902514413 2.4569870425 0.9099232513
H -0.1135456588 2.9225229195 1.9026524084
H 0.5135941148 1.3179373367 3.6518577924
H 1.8774760000 2.4056628538 3.2841288426
H -0.2783482206 1.7674217388 -0.9449196449
H -1.4872031618 2.4497705975 0.1560971411
H -1.5747740672 -0.3634302253 -1.0549879937
H -2.6927536651 0.2372368575 0.1686099323
H -3.4089343572 2.0588322956 -1.3620253194
H -2.2231036705 1.5504602151 -2.5659082162
H -3.3323637130 -0.6827636264 -2.7040027780
H -4.1387629826 -2.2770147434 -1.2531419210
H -5.7677870582 -3.0321411018 0.4775986385
H -7.5117514347 0.8824029484 0.5438773472
H -5.8970286315 1.6358655665 -1.1938128515
H -5.1056745454 -1.2384841157 -4.2959909566
H -6.3572492400 -0.4558494385 -6.3005109538
H -5.5605301924 3.6102387863 -5.2065987571
H -4.3060912746 2.8402504058 -3.2149988249
