38
CONF44
O 0.8026403618 -0.5744769431 3.0723488243
P 0.3853858754 -1.0717591117 1.7474892476
O 0.4073047703 -2.6628528391 1.6580298904
C 0.0371316472 -3.3616736528 0.4896666306
C -1.2803675047 -3.7703958107 0.3455936892
C -1.6259513338 -4.5101615432 -0.7827409719
C -0.6628722845 -4.8290794885 -1.7378050729
C 0.6550317356 -4.4114383704 -1.5645480906
C 1.0170153270 -3.6709741412 -0.4418307861
O 1.2941811002 -0.6426281827 0.4893183755
C 1.7537306638 0.6685319744 0.2686045318
C 1.4339217785 1.2475712794 -0.9515847205
C 1.8958793685 2.5314596376 -1.2242920309
C 2.6666772348 3.2159916067 -0.2861842901
C 2.9888976340 2.6056171337 0.9235322350
C 2.5397926535 1.3180554582 1.2106203255
O -1.1299249031 -0.7381182346 1.3093426157
C -1.4732393396 0.5183997678 0.7836297018
C -1.2603216273 1.6781635842 1.5173566736
C -1.6175442454 2.8982417629 0.9480996829
C -2.1910166609 2.9445768470 -0.3207698583
C -2.4148986360 1.7637678439 -1.0261263625
C -2.0530246474 0.5371163653 -0.4764056743
H -2.0131508587 -3.5141108989 1.1025345854
H -2.6523521378 -4.8384881541 -0.9108448041
H -0.9383317467 -5.4063534629 -2.6142241288
H 1.4093625956 -4.6630541367 -2.3030452220
H 2.0375650069 -3.3397078579 -0.2856557747
H 0.8219230275 0.7019071631 -1.6612318633
H 1.6460704128 2.9972388294 -2.1722143582
H 3.0201510025 4.2191703658 -0.5003477694
H 3.5989563281 3.1286713819 1.6530548601
H 2.7863707543 0.8309618357 2.1463504641
H -0.8168985650 1.6268265398 2.5061283071
H -1.4482834639 3.8141996449 1.5049123079
H -2.4670409537 3.8987416777 -0.7572968107
H -2.8654789775 1.7941713190 -2.0129861688
H -2.2019039445 -0.3941566998 -1.0128614362
