28
CONF20
C -2.8737360830 0.2057606438 -1.1826874007
N -1.8317394965 0.6715428899 -0.2794986366
C -1.9455721993 2.0873993026 0.1111436988
O -0.8897045456 2.5000287928 0.9419270391
C 0.3168416034 1.8582278292 0.5459322880
N 0.1795911115 0.4433511228 0.8036474605
C -0.9171654194 -0.1644638183 0.2746629286
N -0.8991859048 -1.4919075205 0.2127784611
N -2.1204638261 -2.1426116348 0.3434910023
O -3.0257720672 -1.6157314395 1.0036930179
O -2.1836888589 -3.2570189809 -0.1542289340
C 1.1883639761 -0.3083759391 1.5482271220
C 2.3483710456 -0.7272063181 0.7035215131
C 3.6409443002 -0.2927109013 0.7870934682
N 4.5334408304 -0.8171988397 -0.1143355692
C 3.9225195534 -1.6512264876 -0.8893249670
S 2.2109909987 -1.8852982592 -0.5990255238
Cl 4.6998520695 -2.5160638886 -2.1649711550
H -3.0551640469 0.9880126082 -1.9283838081
H -2.5366563180 -0.6931535246 -1.7031984714
H -3.8045462845 -0.0200597564 -0.6508256400
H -1.9807937722 2.6810371687 -0.8199347854
H -2.8712202310 2.2479412881 0.6797835867
H 1.1250470493 2.2661657166 1.1557559585
H 0.5158445128 2.0523119435 -0.5213026569
H 1.5660131094 0.3295800326 2.3564371151
H 0.6934747515 -1.1736624977 1.9970766863
H 3.9941147553 0.4253304729 1.5201320304
