44
CONF17
C 5.0107364691 0.1757029328 -1.2991403853
C 3.5252391619 0.3525414013 -1.5955387580
C 2.9162894417 1.6856685405 -1.0212618983
N 1.5153687639 1.4219669076 -0.8001444955
C 1.1273365366 0.0809322406 -0.3514902266
S 2.5685053849 -1.0061923463 -0.7198211026
C -0.0913911705 0.1569349669 -1.3381076135
C 0.4477142963 1.5693216156 -1.6770726394
O 0.1480276317 2.4559694654 -2.4414024686
N -1.4311248384 0.0010762398 -0.8686741643
C -1.9766271868 0.8478620288 0.0442295106
O -1.3684387293 1.8271134304 0.4699762221
C -3.3998458810 0.4784181170 0.5082756401
C -3.3318703216 -0.7423194623 1.4046869374
C -4.2029457009 -1.8172288329 1.2179058015
C -4.1700356723 -2.9229573588 2.0590544484
C -3.2531743337 -2.9625663088 3.1102931274
C -2.3722066170 -1.8973643115 3.3108484489
C -2.4160740223 -0.8002367102 2.4583777769
O -3.2604687026 -4.0707093848 3.9087407102
N -4.0869525929 1.5769104292 1.1871162862
C 3.5793137664 2.1164093250 0.2783261242
O 4.6027564013 2.9564327144 0.0453711572
O 3.2414613708 1.7441106677 1.3791303903
C 3.2697604843 0.2960270084 -3.1017015366
H 5.3608771175 -0.7745466739 -1.7117295961
H 5.2201747432 0.1821921458 -0.2261845344
H 5.5774002184 0.9810780696 -1.7775087879
H 3.0290090105 2.4803839796 -1.7655255782
H 0.8620198485 0.0049899398 0.7057545782
H -1.9581884923 -0.8055531302 -1.1700375012
H -4.9222271196 -1.7893402023 0.4039396962
H -4.8479689219 -3.7575769152 1.9121659645
H -1.6542155693 -1.9317390082 4.1260230162
H -1.7215384754 0.0207809372 2.6194610093
H -2.5909564126 -3.9774744872 4.5998022563
H -4.0621049424 2.3996520386 0.5901135974
H -3.5529983590 1.8304625890 2.0145373267
H 3.5776519448 -0.6760206981 -3.4954531184
H 2.2138292377 0.4416353839 -3.3456734513
H 3.8527334427 1.0774902214 -3.6027961361
H 5.0226412753 3.1723696979 0.8966279942
H -3.9774247016 0.2142183006 -0.3872055135
H 0.0724057331 -0.5000662775 -2.1969776101
