42
CONF14
C -3.0439702124 -1.4659780590 3.0706195454
O -2.4252845901 -0.3968400509 2.3492921493
C -2.9239062364 -0.1036162489 1.1216521948
C -4.1384674471 -0.5655412508 0.6183222957
C -4.5352343721 -0.2029093258 -0.6651214027
C -3.7415894765 0.6171279248 -1.4583563654
C -2.5272160076 1.0750611349 -0.9601450100
C -2.1156078998 0.7144089642 0.3148252672
N -0.8711075246 1.2001976846 0.8207774987
C -0.8886938579 2.4500336448 1.5980102864
C 0.5655159531 2.8583696475 1.7415564066
S 1.4686652124 1.2628307490 1.9549259307
C 0.1961312409 0.3983304621 1.0839444576
C 0.3803524133 -0.9227505051 0.7334618163
C -0.5759448910 -1.7371184049 0.1024547915
N -1.3149515109 -2.4778453340 -0.4066894953
S 1.9140105393 -1.7079282299 1.1554687992
C 2.9287179729 -1.3385961117 -0.2687550471
C 4.2311771452 -1.8403281735 -0.2920389116
C 5.1065952265 -1.5990374451 -1.3320725831
C 4.6822811952 -0.8214606717 -2.4055014062
C 3.3890713127 -0.3098120672 -2.4027641001
C 2.5157285273 -0.5659214615 -1.3472413975
C 2.8818780266 0.5281152990 -3.5386317327
F 3.8415227477 0.8027479840 -4.4490023044
F 1.8652876447 -0.0796152021 -4.1994574069
F 2.3929663662 1.7196798496 -3.1006440081
F 4.6446985396 -2.5875229742 0.7522867769
H -2.4204711730 -1.6259439754 3.9506237037
H -4.0590951848 -1.1968014399 3.3877194027
H -3.0666738059 -2.3765285318 2.4606758169
H -4.7669033431 -1.2198065821 1.2090915813
H -5.4778398555 -0.5788064561 -1.0491417264
H -4.0541334595 0.8833148512 -2.4613608123
H -1.8708811694 1.6947776121 -1.5629790666
H -1.3537481532 2.2709443499 2.5786896766
H -1.4753888088 3.1982638179 1.0562759426
H 0.7376129500 3.4884080395 2.6159779743
H 0.9378657380 3.3593273078 0.8433708204
H 6.1056506425 -2.0177817861 -1.2916124391
H 5.3538187716 -0.6181293535 -3.2300565103
H 1.5075607030 -0.1653197872 -1.3612592114
