50
CONF11
C 5.4883225170 3.8588521826 1.8885364316
C 3.9801591086 3.9973788353 1.9375241434
O 3.3341704582 3.0012401669 1.1068378197
C 3.2139708456 1.7672283874 1.6759851326
O 3.5349121397 1.5184233689 2.8252833558
N 2.7190956338 0.8482615884 0.7857549815
C 2.2631775701 -0.4283150179 1.3286783639
C 0.7420058971 -0.3922929048 1.5752172771
C 0.0232371547 0.0077903566 0.3159233035
C -0.9307347696 -0.7288312053 -0.2867017798
C -1.3586527678 -2.0758987389 0.1747179890
C -2.6938428061 -2.4261738604 0.4520147263
C -3.8912545585 -1.4960522405 0.3772187960
C -3.6500014169 -0.0375730402 -0.0282916181
C -3.0037775374 0.0802260563 -1.3768543406
C -1.6450921564 -0.2500661393 -1.5032837521
N -0.9732591833 -0.1789568640 -2.6583603334
C -1.6458803420 0.2220049258 -3.7432593911
C -2.9930912375 0.5617683333 -3.7278883626
C -3.6788421918 0.4921342367 -2.5198725728
C -2.9810466030 -3.7401833488 0.8401850697
C -1.9802304207 -4.6904861113 0.9398801545
C -0.6611213424 -4.3741448585 0.6426006754
C -0.3748473215 -3.0748004180 0.2576671916
Cl -2.3886745594 -6.3248595515 1.4315828659
C 0.5179455899 1.3193403738 -0.2299821085
C 2.0412249650 1.2336177350 -0.4522945574
H 5.9513215003 4.6649705443 2.4668472736
H 5.8495392983 3.9219150587 0.8580722122
H 5.7982760488 2.9042166153 2.3199314113
H 3.6520503152 4.9495020412 1.5119320895
H 3.6053203451 3.9060079633 2.9609177742
H 2.5032582598 -1.2144974606 0.6008046666
H 2.8037039574 -0.6272228264 2.2550005330
H 0.3995310839 -1.3546152572 1.9613618622
H 0.5547949755 0.3646517445 2.3505757153
H -4.3886984298 -1.5067038192 1.3554602398
H -4.6072491219 -1.9369984844 -0.3294975005
H -4.6141128245 0.4820070438 -0.0293703432
H -3.0165085714 0.4508470476 0.7215079481
H -1.0745233024 0.2722061067 -4.6686187873
H -3.4902130333 0.8790478522 -4.6383334066
H -4.7296803031 0.7646549641 -2.4634583485
H -4.0055259192 -4.0178980327 1.0679906355
H 0.1157036894 -5.1273942019 0.6968839030
H 0.6429758955 -2.8157010955 -0.0144279102
H 0.0281192469 1.5827574397 -1.1687771403
H 0.3274327123 2.1202990162 0.4989066999
H 2.2474865995 0.4655228122 -1.2087427014
H 2.4391260182 2.1827918816 -0.8087851892
