19
CONF3
C -2.3400562237 0.8603984715 -0.5835814048
C -1.6144085445 0.3849955099 0.6395369525
C -2.1022960986 0.4775457918 1.8796502726
C -0.2654126522 -0.2327423212 0.4829253202
O 0.4131340698 -0.6642696013 1.3977865376
O 0.1146105476 -0.2578784628 -0.8084818025
C 1.3741592943 -0.9215155864 -1.1278238634
C 2.6150071824 -0.1554056875 -0.6799888743
O 3.1092972806 -0.5260353861 0.5923847102
H -3.3056359309 1.2913271691 -0.3105967131
H -1.7559411020 1.6155930201 -1.1184481308
H -2.5072611132 0.0377995014 -1.2858208694
H -1.5282950562 0.1157772943 2.7253563662
H -3.0785254848 0.9130339866 2.0651495708
H 1.3405987352 -0.9899915275 -2.2177266781
H 1.3706163858 -1.9269397913 -0.6927114507
H 3.4174342462 -0.3725578794 -1.3953240737
H 2.4010971326 0.9256312410 -0.7459797631
H 2.3418782259 -0.5747660386 1.1836937880
