46
CONF1
C -1.1682099047 0.1388817361 1.0455165554
C -1.7567103792 -0.2988391066 2.3950013618
C -3.2792941966 -0.4211076045 2.1276555068
C -3.4815225510 -0.1808086959 0.6006108633
O -4.5546475237 -1.0215695481 0.1502657822
C -3.8385723265 1.2182548846 0.3438459001
C -4.1682079200 2.3606895617 0.1362839105
C -2.0778051189 -0.5393694257 0.0028411794
C -1.9468088348 -2.0701671955 -0.0038585057
C -1.7546876200 0.0218459019 -1.3816777752
C -0.2611774353 -0.1334718370 -1.7122714204
C 0.6401753183 0.4850670503 -0.6282063969
C 2.1288932519 0.3836463604 -0.9326298673
C 3.0751297901 0.2469740410 0.0985464838
C 2.6689819366 0.1383054998 1.5509322776
C 1.2263879430 0.5632224961 1.8033006203
C 0.3107222769 -0.0831023450 0.7680946349
C 4.4388889213 0.1907487341 -0.2072967955
C 4.8838929053 0.2735644512 -1.5219863029
O 6.2116335979 0.2227598436 -1.8567760900
C 3.9595774021 0.4210044065 -2.5544757608
C 2.6065395706 0.4752729236 -2.2474529281
H -1.3452303451 1.2225836493 0.9488504998
H -1.3373370824 -1.2635643045 2.7014405946
H -1.5387333921 0.4182541145 3.1904496677
H -3.6554140902 -1.4217979072 2.3566881794
H -3.8669642089 0.2921015662 2.7090144753
H -4.7033554635 -0.8321302497 -0.7863264674
H -4.4577734773 3.3690032976 -0.0536091166
H -2.6063172520 -2.4940022085 -0.7662099765
H -0.9260274150 -2.3799699181 -0.2350900010
H -2.2209879439 -2.5148261269 0.9555267928
H -2.0085537609 1.0890230842 -1.4047753610
H -2.3589327570 -0.4732278354 -2.1532793811
H -0.0788577169 0.3511234763 -2.6759689606
H 0.0025918596 -1.1907958804 -1.8416563144
H 0.3870205009 1.5591584672 -0.5834600218
H 2.7933196370 -0.9076729915 1.8664246590
H 3.3625331197 0.7244570303 2.1647492979
H 1.1314616767 1.6562310594 1.7352253138
H 0.9305145611 0.2746405421 2.8178854505
H 0.5222480260 -1.1638864217 0.7664330930
H 5.1618716632 0.0839747805 0.5997216614
H 6.7381402406 0.1175265406 -1.0533031862
H 4.3047378629 0.4937482599 -3.5809121542
H 1.9068657705 0.5982457479 -3.0670593016
