55
CONF105
C 5.1829729257 -4.2570152408 -2.3135671451
O 3.8910181413 -3.6983346293 -2.5853268402
C 3.2550979265 -3.0571928664 -1.5663112959
C 1.9945218906 -2.5291265782 -1.8731548351
C 1.2658516700 -1.8593131545 -0.9056940896
C 1.7720503095 -1.6934913959 0.3902809282
C 3.0226590461 -2.2351662723 0.6838297541
C 3.7717842489 -2.9116897029 -0.2768112076
C 1.0336515494 -0.9399656562 1.4647168312
S -0.7039798148 -1.6057458253 1.5713270890
C -1.5811362075 -0.2821360768 2.3838719581
C -2.1511720659 -0.5154779750 3.6386711029
C -2.9260068464 0.4585446513 4.2571145518
C -3.1113336923 1.6919554052 3.6369249813
C -2.5345073059 1.9434441552 2.3987065844
C -1.7791953125 0.9609824502 1.7535389741
N -1.2426388578 1.2410002318 0.4666036581
C -2.1735801487 1.6281538877 -0.6070040359
C -2.7324103421 0.3644329407 -1.2916414722
N -3.7005436795 0.5911062994 -2.3601528823
C -4.9350100342 1.2214394585 -1.8956938542
C -3.1344246180 1.3061323353 -3.5034078963
C 0.0676503732 1.0393534169 0.1395359110
O 0.5103256784 1.2319669680 -0.9897555456
C 0.9805637134 0.5885732926 1.2845070983
O 2.3311642309 1.0003058480 1.0196379854
C 2.5443316932 2.3414257478 1.0404602511
C 3.9554849029 2.6688835843 0.6685582517
O 1.6738411956 3.1420481498 1.3086343432
H 5.5087609667 -4.7154099290 -3.2475493762
H 5.1238142744 -5.0205575273 -1.5291969119
H 5.8939767168 -3.4765986693 -2.0181307664
H 1.6013824062 -2.6569690485 -2.8765753860
H 0.2894074319 -1.4624437619 -1.1609250739
H 3.4307936976 -2.1251202789 1.6847885080
H 4.7391324715 -3.3166789373 -0.0067652004
H 1.5262011496 -1.1270016559 2.4241189032
H -1.9868944903 -1.4734626170 4.1206158168
H -3.3707593705 0.2589690303 5.2263849560
H -3.6943602079 2.4672775385 4.1229767384
H -2.6583798002 2.9127679104 1.9271203109
H -1.6300234622 2.2573712670 -1.3141099299
H -2.9802184912 2.2145933727 -0.1629689751
H -1.8885132098 -0.2039056777 -1.7027254381
H -3.2055059855 -0.2609748365 -0.5224027214
H -5.6825576511 1.1865651083 -2.6961423878
H -4.8114289477 2.2807172232 -1.6040402997
H -5.3287761818 0.6714008832 -1.0341404619
H -3.8428208810 1.2723410017 -4.3387135811
H -2.9146485282 2.3692857391 -3.2961365730
H -2.2056823028 0.8191090167 -3.8192974200
H 0.6522320623 1.0468232851 2.2220024650
H 4.6511526604 1.9264595575 1.0635969769
H 4.0304085868 2.6525705332 -0.4246168787
H 4.2062747010 3.6677793042 1.0244331818
