42
CONF140
C -4.4039152078 1.7108965565 3.5305765378
C -4.7771553794 2.0338413285 2.0852020913
C -4.4647464626 0.8930096299 1.1506571920
O -4.8311234718 1.2135795181 -0.1840679986
C -4.1059634691 0.2703301376 -0.9807782984
C -2.8073008899 0.0199498349 -0.1762426626
O -3.0558696185 0.6544157562 1.0936439967
C -2.5366429193 -1.4645673733 -0.0059639402
O -1.3146636921 -1.7163258828 0.7029272620
C -0.1264598262 -1.6038474572 0.0346378146
C 1.0175288660 -1.7888183235 0.8221446877
C 2.2785919013 -1.7263921988 0.2509926812
C 2.4010206712 -1.4686444284 -1.1123906499
C 1.2778929524 -1.2789841166 -1.9003290639
C 0.0051124298 -1.3479156321 -1.3321829354
O 3.6553624867 -1.4692187391 -1.7184704526
C 4.5209215631 -0.4344711486 -1.4296206482
C 4.1169523324 0.7559571292 -0.8263082727
C 5.0614528818 1.7577394359 -0.6083352804
C 6.3899324387 1.5823619599 -0.9865350775
C 6.7758998324 0.3864942064 -1.5926921710
C 5.8486342771 -0.6248512025 -1.8147460027
H -4.6855618498 2.5346109483 4.1919665138
H -3.3274156764 1.5470428210 3.6320022940
H -4.9202918770 0.8089238403 3.8758356062
H -4.2421713792 2.9220062365 1.7300305319
H -5.8510556918 2.2369860551 2.0066380351
H -4.9793682349 -0.0382920877 1.4567844698
H -4.6833708394 -0.6600237045 -1.0922856032
H -3.9232158629 0.7083576346 -1.9633325645
H -1.9445436942 0.5244580734 -0.6228153932
H -2.5411465218 -1.9754460688 -0.9778777025
H -3.3213006835 -1.9065814813 0.6152643160
H 0.8991081214 -1.9921878189 1.8814708092
H 3.1670242941 -1.8751058644 0.8567545820
H 1.3927952044 -1.0767503399 -2.9602961373
H -0.8568059540 -1.1950051946 -1.9693248820
H 3.0830052998 0.9014603221 -0.5342224828
H 4.7466967646 2.6854112027 -0.1399816989
H 7.1174505837 2.3681034646 -0.8122660511
H 7.8084523842 0.2358011480 -1.8926499660
H 6.1362550964 -1.5602562935 -2.2838133745
