43
CONF39
C -2.4727308359 0.8414635640 3.0999463462
Si -2.3925390353 1.3418981186 1.3075808557
C -4.0644696138 1.7263678703 0.5834885101
O -1.4689428357 2.6937552281 1.0852196636
O -1.6897574678 0.0575198495 0.5140375239
Si -1.3636863995 -0.3463228827 -1.0600859476
C -1.0256246728 1.1929901551 -2.0579567608
C -2.7844125747 -1.3467751817 -1.7242945881
O -0.0275559784 -1.3044569133 -1.0141996336
Si 1.5725618107 -1.3528728867 -1.4122003928
C 2.1575419368 -3.0924942228 -1.0947892788
C 1.8363962818 -0.8392983793 -3.1838710141
O 2.4047907953 -0.2941513092 -0.4650961252
Si 2.4084674740 0.2428891459 1.0942444810
C 2.7817048756 -1.1913715431 2.2311072826
C 3.6294100808 1.6334528959 1.2418975894
O 0.9228334823 0.8887540271 1.4701895462
H -1.4669880137 0.6498385541 3.4901802216
H -3.0651071076 -0.0696488102 3.2331650681
H -2.9207300999 1.6343431546 3.7073766602
H -4.5268722021 2.5689767593 1.1078187207
H -3.9881840113 1.9996465601 -0.4740319084
H -4.7368205858 0.8662812990 0.6669832472
H -0.5286649998 2.5730442739 1.2769281745
H -0.1428974231 1.7125404544 -1.6691960902
H -0.8498478117 0.9509261845 -3.1114728327
H -1.8633499259 1.8960604170 -2.0086457636
H -2.9473530523 -2.2347154160 -1.1048465765
H -2.5895841317 -1.6799669778 -2.7489763471
H -3.7109392579 -0.7627362225 -1.7292262016
H 3.2352241651 -3.1819310819 -1.2659949369
H 1.9535628765 -3.3928008104 -0.0619966118
H 1.6487756292 -3.8030273642 -1.7546689105
H 1.5842745926 0.2152908695 -3.3307948008
H 2.8861197968 -0.9715578061 -3.4666385419
H 1.2256714381 -1.4377618055 -3.8679815847
H 2.8700381980 -0.8564838285 3.2698353183
H 1.9790228548 -1.9364102612 2.1918119738
H 3.7156252436 -1.6906012496 1.9519576795
H 4.6445655211 1.2901099263 1.0193935917
H 3.3826627898 2.4358122159 0.5392260648
H 3.6262895034 2.0540133431 2.2524604256
H 0.1615185898 0.3194102820 1.2721154056
