49
CONF163
C -2.2765594569 -2.1013035878 0.2875670036
C -3.6987211068 -1.5795695778 0.2745873935
C -4.0224821312 -0.1886560064 -0.3232366858
C -4.1190909262 -0.4682376104 1.1917122431
C -5.5313951543 -0.4381481523 1.7491465095
C -3.1392989969 0.1438263527 2.1726896882
C -3.0780201450 0.6945981159 -1.0098490265
O -3.3321380053 1.2991236954 -2.0365876313
O -1.8562946871 0.8027060691 -0.4050033772
C -0.8820204190 1.6200926859 -1.0955269259
C -1.2631666574 3.0351989136 -1.0024207562
N -1.5265883627 4.1563888689 -0.9164201602
C 0.4528793244 1.3622993160 -0.4386209050
C 1.4365387762 0.6861882821 -1.1516654481
C 2.6545021130 0.4080863421 -0.5336746552
C 2.8905657681 0.7917970514 0.7847061460
C 1.8947128900 1.4720278091 1.4810370704
C 0.6769544366 1.7653568381 0.8788504055
O 3.5596029904 -0.3162607357 -1.2765950839
C 4.9165422961 -0.1701738919 -1.0135979136
C 5.5117455337 1.0883159217 -0.9890783169
C 6.8868173670 1.1777072779 -0.7962376625
C 7.6561577321 0.0251612526 -0.6400987279
C 7.0436191718 -1.2251565781 -0.6778529476
C 5.6665969471 -1.3298621387 -0.8616979986
C -4.6789343880 -2.6779999981 -0.0943622821
H -1.5293265741 -1.3516111685 0.5378700525
H -2.0241067164 -2.5144098183 -0.6953247676
H -2.2051604807 -2.9150191480 1.0185080400
H -4.9836803141 -0.1462299065 -0.8264607919
H -5.6033958930 -1.0999986012 2.6200397396
H -5.7738655760 0.5778509254 2.0786765456
H -6.2861444347 -0.7428135266 1.0234590833
H -2.0997036094 0.0882143440 1.8595294648
H -3.2370879742 -0.3770592438 3.1321240446
H -3.3862541037 1.1980657672 2.3401133522
H -0.8564530626 1.3503964054 -2.1566311658
H 1.2723847607 0.3703159390 -2.1768114124
H 3.8369935962 0.5616271665 1.2610359421
H 2.0756447749 1.7711671619 2.5082907080
H -0.0942485714 2.2968702986 1.4275441546
H 4.9064754133 1.9794759090 -1.1200837153
H 7.3591826685 2.1548332579 -0.7772145892
H 8.7283096309 0.1026973091 -0.4929774189
H 7.6360189426 -2.1268722935 -0.5591418787
H 5.1711053666 -2.2946160907 -0.8904236064
H -5.7005353484 -2.3177854099 -0.2198823133
H -4.3693315692 -3.1481020635 -1.0338364709
H -4.6793448570 -3.4505027023 0.6834965736
