21
CONF7
C 1.1194262671 -1.2590340076 0.2809442582
C 0.0897137093 -0.1141362748 0.2113051877
C 0.7961654628 1.2167166705 -0.0902888704
O 1.5808181713 1.1742452890 -1.3019025076
C -0.9617196961 -0.4568747842 -0.8439949998
O -1.9834432514 0.5614133656 -0.8327875559
C -0.5539503555 -0.0357647548 1.6103574441
O -1.3753611791 1.1172206424 1.8178215866
O 1.6773736628 -1.6235070798 -0.9850271490
H 0.6369662521 -2.1617933702 0.6750171636
H 1.9138189119 -0.9659697000 0.9859113250
H 0.0744023271 2.0378415732 -0.1395643396
H 1.5034474432 1.4310488775 0.7190903287
H 0.9907668843 1.3424423637 -2.0472859967
H -0.5051515667 -0.5187974760 -1.8400729535
H -1.3974214717 -1.4384509283 -0.6069931499
H -2.6883152416 0.2836651898 -1.4299588928
H -1.1303991125 -0.9594279586 1.7796806359
H 0.2354080043 0.0115203899 2.3702790294
H -1.9823532459 1.1463512402 1.0611826679
H 1.9598083047 -0.7887089553 -1.3937132067
