34
CONF3
C 6.1358058340 0.0137255538 -0.0320327219
N 5.4826886450 0.7391677250 1.0641166727
S 4.7526932379 2.2074480037 0.8275437642
O 5.5817572780 2.9766853167 -0.0945855924
O 4.3035813363 2.6861291504 2.1305580072
C 3.1525667385 1.8936878330 -0.1947736258
C 1.9982071140 1.2448212081 0.6251781929
C 0.8585078133 0.6367781020 -0.2691810430
C -0.4778296278 0.3932023099 0.5177222219
C -1.4539804201 -0.5927845963 -0.2177123915
C -2.9302109622 -0.4997373948 0.3083801388
C -3.7995461046 -1.7451683688 -0.0756266928
C -5.3401245363 -1.5105473930 0.0574673222
F -5.7856185462 -0.6882326285 -0.8973507899
F -5.9652851981 -2.6886791040 -0.0670021330
F -5.6291201552 -0.9898562913 1.2582920341
F -3.5476464012 -2.0897675757 -1.3599702624
F -3.4712252875 -2.7743508560 0.7332421562
F -2.9101010783 -0.3955579545 1.6563870897
F -3.5052158152 0.6073664103 -0.2119666381
F -1.4504297667 -0.3046443492 -1.5382441129
F -1.0080539820 -1.8562063760 -0.0365796910
F -1.1021352887 1.5800295540 0.6813525603
F -0.1777635712 -0.1254574676 1.7298841829
F 0.6109399498 1.4870331695 -1.2891193356
F 1.2899871908 -0.5443998947 -0.7704185795
F 2.5233122165 0.2378996320 1.3767682618
F 1.4682950922 2.1756710896 1.4400607665
F 2.7540629403 3.0800773132 -0.6775809686
F 3.4862049673 1.0800528957 -1.2276942423
H 6.9511434547 -0.5793360510 0.3916517250
H 6.5652706678 0.7396266516 -0.7246076389
H 5.4475510494 -0.6435901401 -0.5743981722
H 5.0002817900 0.1846719054 1.7619956343
