41
CONF21
C 3.8286532610 1.0001932338 0.2165360461
C 3.5849487739 -0.1964879702 1.1085109950
O 2.1942069217 -0.6431418951 1.0174092448
C 1.8621826353 -1.3904849724 -0.0126106374
N 2.6968536048 -1.8045674483 -0.9311280091
C 2.2176487818 -2.5773347125 -1.9151898869
C 0.9222157935 -2.9866569592 -2.0828379827
C 0.0256104670 -2.5314812024 -1.1023313909
N -1.2818743954 -2.6814678329 -0.9165639061
C -1.4944047899 -1.9734930343 0.2150272447
N -0.4525673727 -1.3745866139 0.7872128863
N 0.5397975204 -1.7364501937 -0.0702184936
S -3.1511048254 -1.6524957584 0.8722960231
O -3.0329254392 -1.5353809272 2.3191842844
O -4.0703897739 -2.5530638381 0.1955261923
N -3.4648294360 -0.0792975763 0.2333152056
C -2.7968975602 1.0086988689 0.8393751752
C -1.6171286551 1.5744287931 0.2989321875
C -0.9887981521 2.6402953098 0.9470814707
C -1.5111336037 3.1541007973 2.1232417428
C -2.6820894409 2.6280448351 2.6524473820
C -3.3246778300 1.5762947785 2.0099717564
Cl -4.8445390790 1.0277325252 2.6519148892
C -1.0706552004 1.0767283801 -0.9860190066
O -1.6978188974 0.4586511038 -1.8279479105
O 0.2288668221 1.4091567307 -1.1575318160
C 0.7761848416 1.0508214383 -2.4460401639
F 3.1395461011 -2.9567352334 -2.8070973575
H 4.8287261177 1.3969198288 0.4165287442
H 3.0959747251 1.7859358649 0.4197309024
H 3.7783247421 0.7201677960 -0.8378563085
H 4.2399618806 -1.0361264740 0.8624528736
H 3.6895501835 0.0568401190 2.1647529843
H 0.5994426241 -3.6061084278 -2.9071396871
H -3.2924029622 -0.1125572614 -0.7739604981
H -0.0921510112 3.0644396166 0.5138721900
H -1.0196118317 3.9809005457 2.6239678968
H -3.1195949928 3.0401762877 3.5542008522
H 0.2306651141 1.5604886790 -3.2441554884
H 1.8155649434 1.3763996067 -2.4179728748
H 0.7106689815 -0.0288567121 -2.6068882595
