39
CONF2
C 6.2888759655 -2.3256965864 0.2364843421
N 5.6720320399 -1.0116731930 0.1410178961
C 6.5436651741 0.1495879597 0.2069851086
C 4.3018057080 -0.9325888220 -0.0227795929
O 3.5868640479 -1.9255831095 -0.1047216224
N 3.8112436905 0.3642527185 -0.0856796379
C 2.4776479336 0.7769378418 -0.2539457417
C 2.2313980659 2.1560215199 -0.2118200225
C 0.9495701481 2.6597563906 -0.3689029459
C -0.1112862667 1.7860201777 -0.5809377549
C 0.1194133533 0.4151656165 -0.6343373901
C 1.4026935634 -0.0937623799 -0.4684749027
O -1.3535068433 2.3510112645 -0.8002810936
C -2.4767684210 1.6744228562 -0.3562982209
C -2.5481410332 1.1178104803 0.9213655208
C -3.7228997457 0.5192686964 1.3432607672
C -4.8399932130 0.4787255741 0.5018263446
C -4.7676266267 1.0452104877 -0.7707987706
C -3.5781943923 1.6369258728 -1.1964899752
O -5.9472004946 -0.1330794178 1.0202345725
C -7.1045634330 -0.1934658478 0.1957478739
H 5.5048850205 -3.0806374038 0.1837034828
H 6.9954900622 -2.4874506194 -0.5883167251
H 6.8276048773 -2.4342246834 1.1867996207
H 7.5759228078 -0.1946613689 0.2957999324
H 6.4866242826 0.7665720713 -0.7014498991
H 6.3387975937 0.7809659535 1.0847032976
H 3.0540942525 2.8474783051 -0.0458711664
H 0.7609794242 3.7269377925 -0.3324422600
H -0.7075928068 -0.2652202987 -0.8064469713
H -1.6838302027 1.1539518470 1.5758732056
H -3.7999489704 0.0813466498 2.3325038489
H -5.6158492212 1.0303548487 -1.4435818080
H -3.5042732059 2.0784953325 -2.1842875172
H -6.9109363764 -0.7590409024 -0.7256244018
H -7.8642877571 -0.7105619419 0.7835060038
H -7.4659934174 0.8112281392 -0.0617307114
H 1.5770646474 -1.1585856459 -0.5094556846
H 4.4633255574 1.1206372007 0.0292712052
