47
CONF13
C -4.2752503297 0.4824060816 -2.4397964440
C -3.9338401936 -0.8152426039 -1.7339801951
C -5.1543504001 -1.6024103175 -1.3012796697
O -3.1936735258 -0.5387921525 -0.4933407218
P -1.6228142314 -0.1766011832 -0.4749892953
S -0.5368969018 -0.8156566078 -1.9532100429
O -1.1932416398 -0.6851213424 0.9979719204
C -0.7508007441 -2.0788083029 1.2247149443
C -1.8899704711 -3.0509789632 0.9801126271
C -0.2442583150 -2.1075581004 2.6513548808
S -1.7322753701 1.9142578244 -0.1956426494
C 0.0105890015 2.4533283000 -0.5109974865
C 0.7444731318 2.8122349434 0.7763305722
N 1.0352278564 1.6779700090 1.6516244701
S 2.5859290579 1.0307091617 1.7114812174
O 3.4993659066 2.1780963688 1.6979461409
O 2.5518136530 0.0537953860 2.8055498304
C 2.8775019546 0.1090917405 0.1908391920
C 3.2557609477 0.7963674379 -0.9597874257
C 3.4500108956 0.0815111195 -2.1360546929
C 3.2844335261 -1.3012442420 -2.1505842665
C 2.9306272903 -1.9765378780 -0.9869444515
C 2.7229727032 -1.2727318994 0.1943789390
H -4.8555230696 1.1350529156 -1.7801570525
H -4.8720686943 0.2659779515 -3.3312913715
H -3.3710277415 1.0111674958 -2.7516281435
H -3.2824019723 -1.4296869316 -2.3673083802
H -4.8623512645 -2.5133949248 -0.7727855596
H -5.7416113401 -1.8823224778 -2.1807375885
H -5.7838713534 -0.9998599431 -0.6397672078
H 0.0645286520 -2.2636575766 0.5144245816
H -1.5601028614 -4.0603163294 1.2452706441
H -2.7544551422 -2.7908945164 1.5982777397
H -2.1935827246 -3.0583029871 -0.0697850832
H -1.0598629061 -1.8953589440 3.3492326129
H 0.1512873092 -3.1029250517 2.8759762487
H 0.5556955657 -1.3796630350 2.8091180690
H -0.0705659668 3.3371672360 -1.1519238557
H 0.5147444344 1.6626566612 -1.0778018421
H 0.1557816937 3.5431775691 1.3450429878
H 1.6949934395 3.3005403416 0.5324555033
H 0.3055007702 0.9707360413 1.7217247022
H 3.4190804653 1.8680938494 -0.9243884989
H 3.7425328521 0.6044849135 -3.0405532282
H 3.4387708065 -1.8541239366 -3.0712378014
H 2.8152189182 -3.0553992039 -0.9974451609
H 2.4647166530 -1.7804045830 1.1169496861
