23
CONF9
C -4.4606791558 -0.3120348898 -0.2026938580
C -3.6634232342 -1.1414194381 0.5841148874
C -2.2904968766 -0.9316290344 0.6603026786
C -1.7252407415 0.1201265034 -0.0556525581
C -2.5097728417 0.9563782388 -0.8443678109
C -3.8814807706 0.7331018465 -0.9181928999
N -0.3058715274 0.3377726434 -0.0115927108
C 0.3370338225 0.5277928105 1.2424905707
O -0.3058200396 0.5005712829 2.2930016527
C 1.7444938704 0.7565726270 1.1233116481
C 2.3947254186 0.8250748379 -0.0945196715
C 1.5684149324 0.6472915552 -1.2526354120
N 0.2899220486 0.4194799327 -1.2060950292
N 3.7185638583 1.0232742482 -0.2480800528
Cl 2.6330452712 0.9884268332 2.6028607314
H -5.5310656017 -0.4816656540 -0.2590749319
H -4.1093359104 -1.9620691542 1.1367715925
H -1.6627913156 -1.5777643398 1.2623816081
H -2.0474124332 1.7707072019 -1.3917915405
H -4.4971736601 1.3824810890 -1.5321413134
H 2.0103902858 0.6956347174 -2.2443989561
H 4.2933945464 1.2668251929 0.5422811742
H 4.0955041502 1.1854803237 -1.1671500847
