33
CONF16
C -5.8800070248 0.9376759438 -1.0572117916
C -5.0507517224 1.3222891200 0.1662456516
C -3.5940625833 0.8659077484 0.0964733312
S -3.5121328775 -0.9677780236 0.0933239786
C -1.7671073978 -1.2998974269 0.1756520248
C -1.4136627691 -2.6577946108 0.3313854998
C -0.0908208847 -3.0654769904 0.3958162678
C 0.9058251697 -2.0949861740 0.3077237548
C 0.5348855010 -0.7416167359 0.1532217628
C -0.7842163324 -0.3124327475 0.0811445232
N 1.7327759220 -0.0484741098 0.0977088814
C 2.7196510968 -0.9925678452 0.2176026533
N 2.2877303575 -2.2219436919 0.3455255610
N 4.0678199925 -0.6731362227 0.2045275928
C 4.5829061885 0.5888029738 0.0675648788
O 3.9298714262 1.6087207636 -0.0597832465
O 5.9334381086 0.5326686781 0.0948026570
C 6.5837785492 1.8134315594 -0.0463565268
H -5.9721194636 -0.1475689880 -1.1553849112
H -5.4183635086 1.3155693562 -1.9757188597
H -6.8883854623 1.3558941461 -0.9891074143
H -5.5128440754 0.9243646197 1.0774350684
H -5.0404816575 2.4142506022 0.2727770881
H -3.0383907233 1.2344684273 0.9658912127
H -3.1222255568 1.2517656608 -0.8155388213
H -2.2039016784 -3.3983805992 0.4049373571
H 0.1660601760 -4.1121228455 0.5163008005
H -1.0252720794 0.7349023082 -0.0484010923
H 1.9078137397 0.9394594332 -0.0103038973
H 4.6995578697 -1.4539018888 0.3009991129
H 6.2938661897 2.4796763710 0.7698282173
H 6.3180890111 2.2714743931 -1.0021846984
H 7.6506779810 1.5967570970 -0.0061754150
