52
CONF321
C -4.9057389361 -2.2584063853 1.8173513126
C -4.5309296896 -0.8384383937 1.5043946363
C -3.4661643801 -0.4614988153 0.7759306719
C -2.5114911166 -1.3636384383 0.1124617682
C -0.9765819610 -1.2712724348 0.3460178288
C -1.6072731229 -0.9255337897 -1.0029635978
C -1.6210778648 0.5015186491 -1.4984979365
C -1.3384466839 -1.9373340127 -2.0973901758
C -0.4139348500 -0.2561261205 1.2444138542
O -0.8293221932 0.8684077597 1.4532630486
O 0.6918595654 -0.7568236784 1.8696497755
C 1.3713599836 0.1573837532 2.7636710310
C 2.1626530099 1.2035166598 2.0230528953
C 2.8445812076 0.8687444058 0.8536584791
C 3.6090859637 1.8366621286 0.2089228440
C 3.7204243534 3.1274321302 0.7176457272
C 3.0432054996 3.4481541318 1.8895836720
C 2.2588595386 2.4973910881 2.5373561718
O 4.3617962471 1.5413901345 -0.9139265503
C 3.8352454067 0.6951250191 -1.8756028963
C 2.5180921564 0.8140504791 -2.3151001634
C 2.0757769704 -0.0089161993 -3.3466788192
C 2.9338637858 -0.9381531901 -3.9329064358
C 4.2486704116 -1.0394695646 -3.4837385666
C 4.7058394035 -0.2246488709 -2.4512038380
C -5.4625817203 0.1884235579 2.0854691609
H -5.8946953186 -2.4913217548 1.4022479097
H -4.1928569902 -2.9927761205 1.4404587758
H -4.9877859952 -2.3906935460 2.9034330707
H -3.3010954819 0.6037185508 0.6480042678
H -2.8252896709 -2.4010916535 0.0460417611
H -0.4611048464 -2.2248275831 0.3865854603
H -1.7569670678 1.2295399255 -0.7001844834
H -2.4283480205 0.6240206235 -2.2292462096
H -0.6744463284 0.7258034004 -2.0017917685
H -1.3566578030 -2.9606497808 -1.7115120813
H -2.1004084391 -1.8510855487 -2.8803588852
H -0.3585413084 -1.7579624733 -2.5541684554
H 0.6487410914 0.6263883928 3.4367727653
H 2.0362896988 -0.4888417563 3.3441363436
H 2.7808150681 -0.1356951050 0.4481342041
H 4.3266443487 3.8587879864 0.1938874514
H 3.1152768953 4.4545030590 2.2898902685
H 1.7167508610 2.7605407229 3.4406335108
H 1.8553897102 1.5440163699 -1.8614770164
H 1.0544973427 0.0867923565 -3.7020029239
H 2.5801840067 -1.5744756984 -4.7373467805
H 4.9254274011 -1.7584659498 -3.9347685699
H 5.7266231662 -0.2899881857 -2.0893275574
H -5.1575156892 1.2063618672 1.8296272554
H -5.5018500981 0.0996778174 3.1787815821
H -6.4868456438 0.0297849057 1.7239806805
