78
CONF932
C -1.0519322051 -1.4278121391 -1.1852657582
C -0.4625625292 -2.5882866860 -1.9759892696
O -1.4308808146 -3.6740856879 -1.7682701625
C -2.1649093084 -3.4512446288 -0.6454777829
O -2.9773274162 -4.2589069848 -0.2579190681
C -1.7273854817 -2.1475781274 -0.0276121291
C -2.7394242937 -1.2510473566 0.6916932864
C -4.0253726413 -1.0372185734 -0.1007734485
C -4.1391725631 0.0079495500 -1.0204908881
C -5.3112397486 0.1518533904 -1.7588998678
O -5.5456831715 1.1301790372 -2.6868294922
C -4.4966406486 2.0790873017 -2.9226117799
C -6.3805898438 -0.7336325825 -1.5862631145
O -7.5386661489 -0.6000763587 -2.2996767751
C -6.2682746584 -1.7711530506 -0.6535425868
O -7.3639110553 -2.5777633897 -0.5473755427
C -7.2788804501 -3.6768179729 0.3689590394
C -5.0935742304 -1.9162766942 0.0875367534
C -2.0574973305 0.0783313895 0.9997891788
C -2.7074055972 0.9163444051 1.9287652230
C -2.1906791548 2.1709526860 2.1382392768
C -1.0729768363 2.6277323506 1.4486592849
O -0.7762465327 3.9093194911 1.8293836446
C -1.7809329577 4.2836102412 2.7982842412
O -2.6487440402 3.1417961542 2.9852914241
C -0.4206169818 1.8373763648 0.5368528490
C -0.9131156741 0.5292593371 0.3224462630
C -0.1384097071 -0.3523677039 -0.6385813980
O 0.9537294260 -1.0658594603 0.0202919420
C 1.8938182891 -0.2941188151 0.6852388938
O 2.5882683158 0.5006094642 -0.2880499102
C 3.5584775542 1.3251164899 0.3482042303
C 4.1997826199 2.2390322155 -0.6797782618
O 5.2356503110 2.9939264191 -0.0226470429
C 6.2132859505 2.1808589666 0.6153920066
O 5.6468312420 1.2745252248 1.5490995170
C 4.6421020582 0.4388194363 0.9516045783
C 4.0482819557 -0.4741202477 2.0101180481
O 5.0130739500 -1.3523334878 2.5806846992
C 2.8625143526 -1.2477550146 1.4025814438
O 2.1839236293 -2.0203301564 2.3846597175
C 7.1014271591 1.4679459567 -0.3746737386
C 7.7581857738 0.2757444393 -0.2235527657
C 8.6032819137 -0.0399927229 -1.3222987507
C 8.5917911397 0.9209327853 -2.2956472239
S 7.5363754109 2.2311599203 -1.8784583335
H -1.8174612502 -0.9378977915 -1.7986702865
H 0.5020521474 -2.9208099123 -1.5835196503
H -0.3998815047 -2.4157965212 -3.0509475000
H -0.9485646679 -2.4301203735 0.6989043984
H -3.0130255641 -1.7271254455 1.6401813740
H -3.3277084919 0.7153089514 -1.1371682775
H -4.8753467107 2.7544188624 -3.6898784384
H -3.5917973013 1.5763608531 -3.2829496523
H -4.2697663820 2.6430542089 -2.0105485933
H -7.4360919657 0.1677259476 -2.8819939232
H -6.4595928462 -4.3526703188 0.0968219229
H -7.1401076517 -3.3231506972 1.3973487247
H -8.2310539498 -4.2018194090 0.2873510365
H -4.9958845171 -2.7193154534 0.8062469919
H -3.6034295033 0.5816023328 2.4416224018
H -2.3676538136 5.1215505192 2.4068495000
H -1.2945257154 4.5267143637 3.7483303852
H 0.4482267017 2.1964013760 -0.0060311588
H 0.2878639675 0.2600372211 -1.4413759817
H 1.4229894434 0.3820827897 1.4231981471
H 3.0925429861 1.9316964501 1.1429572849
H 3.4903445602 2.9701680740 -1.0738723512
H 4.6073148923 1.6419425437 -1.5082661679
H 6.8006686981 2.8808080041 1.2196021848
H 5.0835682612 -0.1711985011 0.1469559959
H 3.6811778122 0.1427377842 2.8427611708
H 5.3534256836 -1.9214321197 1.8759999386
H 3.2412087504 -1.9631168491 0.6603894763
H 1.8772647258 -1.4225728311 3.0809658443
H 7.6327078661 -0.3531571516 0.6502113951
H 9.1943655871 -0.9459552392 -1.3893747052
H 9.1284209393 0.9373151711 -3.2351920477
