57
CONF101
C -4.0116502104 1.5613278371 -2.5429251895
C -3.2575310857 0.2389721101 -2.7307120868
C -2.0045731876 0.1423357727 -1.8941298875
C -1.8155585872 -0.7938984422 -0.9282788034
C -2.8911056345 -1.7136599006 -0.4765140340
C -4.1301101937 -1.2339042844 -0.0322717188
C -5.1173065467 -2.1100564020 0.4107121505
C -4.8838182229 -3.4834797508 0.4186497111
C -3.6503896602 -3.9735757670 -0.0095524888
C -2.6614102888 -3.0965275032 -0.4417972910
C -0.5024722414 -1.0028881295 -0.2684816807
C 0.6829575213 -1.1238580693 -1.0077823724
C 1.9059778944 -1.3010276388 -0.3817418563
C 1.9795106895 -1.3648928902 1.0145618968
C 0.8067343695 -1.2754809575 1.7704873775
C -0.4140321794 -1.1095416789 1.1231721096
O 3.2272408672 -1.5617476274 1.5328626939
C 3.4590952289 -1.2519107398 2.9204354162
C 3.3476736335 0.2350245929 3.2264347400
N 4.1744051650 1.0819764249 2.3650039953
C 3.8489294788 2.4897788118 2.6040932061
C 5.6034486579 0.8565825599 2.5905170062
C -0.9683584518 1.1622408389 -2.1963830788
C -0.4438019911 1.9634786703 -1.1719505152
C 0.5078307674 2.9401627491 -1.4431260188
C 0.9568644836 3.1385611737 -2.7483946174
C 0.4338520780 2.3591437355 -3.7781582512
C -0.5265729978 1.3885244484 -3.5066810260
H -4.8961251102 1.5941538487 -3.1863390243
H -3.3744552804 2.4146414832 -2.7959632671
H -4.3376193904 1.6821707861 -1.5048460537
H -3.9168877378 -0.6049903440 -2.5165019749
H -2.9692060506 0.1519468641 -3.7872323748
H -4.3112528746 -0.1636453607 -0.0197295690
H -6.0684721395 -1.7173660787 0.7575578999
H -5.6533728302 -4.1668899194 0.7638202331
H -3.4579185266 -5.0422797960 -0.0036980830
H -1.6984518320 -3.4815017050 -0.7655293417
H 0.6409538788 -1.0730515540 -2.0912097284
H 2.8197707187 -1.3954461136 -0.9602398523
H 0.8275428046 -1.3380888563 2.8518633874
H -1.3195124262 -1.0420785900 1.7200262235
H 2.7723035736 -1.8112736996 3.5674672649
H 4.4671301495 -1.6261844326 3.1111102150
H 3.6020934610 0.3596343747 4.2998001001
H 2.3064143008 0.5552796770 3.1071074932
H 4.4362074675 3.1228968049 1.9310255643
H 4.0606793875 2.8040377738 3.6444912243
H 2.7864377249 2.6641564498 2.4037628921
H 6.1808262754 1.5370905244 1.9569748671
H 5.8827845657 -0.1662824076 2.3221516887
H 5.8962722974 1.0323804941 3.6439364811
H -0.7913628621 1.8112741755 -0.1546256039
H 0.8976034273 3.5511806146 -0.6342601043
H 1.7026969707 3.8980459539 -2.9614326054
H 0.7757522836 2.5056738403 -4.7984324912
H -0.9166633870 0.7828558257 -4.3191053607
