47
CONF17
C 0.1312155751 2.7350334355 2.2254092484
C -0.7941662039 1.9567592173 1.3171153051
C -1.9454836137 2.6567345237 0.6372287355
C -0.6994730328 2.2951398520 -0.1728936760
C -0.8150458067 1.2379324392 -1.1885962796
O -1.6785403612 0.3924752975 -1.2632306420
O 0.2460129939 1.3139673676 -2.0554081747
C 0.2845744571 0.2973970028 -3.0894766916
C 0.5424406577 0.9829100722 -4.3523087960
N 0.7391656215 1.5053228787 -5.3626854992
C 1.3193525160 -0.7611103169 -2.7587770339
C 1.2887054164 -1.3189555963 -1.4792754427
C 2.1811234053 -2.3263605509 -1.1355037329
C 3.1014847336 -2.7643887386 -2.0941900960
C 3.1434777789 -2.2134954358 -3.3580443853
C 2.2455983752 -1.2037018483 -3.6968861605
F 3.9667085769 -3.7356529034 -1.7581195670
O 2.2776169679 -2.8945605493 0.1039120558
C 1.1966032442 -2.8596860472 0.9716227554
C -0.0887215820 -3.2081986366 0.5667854776
C -1.1085231593 -3.2276557413 1.5121518182
C -0.8468282579 -2.9192290201 2.8447241860
C 0.4473930989 -2.5875252902 3.2338729471
C 1.4757159067 -2.5496495929 2.2974579239
C -2.2560310520 4.0706634754 0.8623168351
C -3.4832159940 4.5801596522 0.9842107622
Cl -4.9385790884 3.6346580245 0.8963255704
Cl -3.7562876693 6.2776074616 1.2527240083
C -1.0065231826 0.5256677677 1.7523845846
H -0.3131650280 2.8273606791 3.2223490165
H 0.3457170859 3.7393850456 1.8546125429
H 1.0836906289 2.2048033895 2.3264595485
H -2.7928374330 2.0118547470 0.4258228510
H -0.0138987064 3.0967429761 -0.4257761629
H -0.7118449137 -0.1633802493 -3.1427446106
H 0.5691218642 -0.9775012483 -0.7442519762
H 3.8791483690 -2.5774641272 -4.0662243318
H 2.2774075645 -0.7664348113 -4.6885654464
H -0.2849506826 -3.4633736296 -0.4687987016
H -2.1132169805 -3.4963536122 1.2026008907
H -1.6477776265 -2.9418725668 3.5756979449
H 0.6614839907 -2.3511455761 4.2711631290
H 2.4920345446 -2.2956543368 2.5776229876
H -1.4359975977 4.7773520340 0.9380809052
H -1.4082752226 0.5121262197 2.7710404807
H -0.0560442078 -0.0202926600 1.7653293069
H -1.7003656794 -0.0084103995 1.1023657024
