68
CONF44
C 1.8004717231 -4.6408968320 -0.5929086086
C 2.4783812895 -3.4912266139 -1.3354524546
C 1.6722984857 -2.1701863089 -1.3591412993
C 0.3458014715 -2.3437162335 -2.1041198232
C 1.4964403015 -1.7232918903 0.0911938040
O 0.2102205403 -1.5996507367 0.4567703529
C -0.0712124412 -1.1623982046 1.8272756879
C -0.1750263887 -2.4096902601 2.6882023138
C -0.4802778242 -2.0559848582 4.1427155144
C -1.6040519055 -1.0664800065 4.1984973701
C -2.0211310164 -0.3230179979 3.1569113035
C -3.1329015392 0.6060074612 3.2961478743
C -3.4483185042 1.5100337147 2.3561065415
C -2.6446183699 1.7071472567 1.1032836296
C -1.2402173854 1.0802629871 1.2583029594
C -1.3768028259 -0.3732568693 1.7816593339
C -0.3885788288 1.2109325190 -0.0082673367
C -0.2607501890 2.6474192315 -0.5181320580
C 0.7586586168 2.7776096036 -1.6346149302
C 0.9450252987 4.1946059453 -2.1382262141
C 1.8966736008 4.1886155084 -3.3226246307
C 1.2937643137 3.3359390456 -4.4341850296
C 0.6737728709 2.0293418037 -3.9934650856
O 0.3049027523 1.8752761628 -2.7087921355
O 0.4264093253 1.1314589314 -4.7742488307
O 2.2147886890 5.5006172937 -3.7930192460
C -3.4306765684 1.2087311572 -0.1229822212
C -0.7992200250 -3.3106636538 4.9625362291
O 2.4322361708 -1.4942248507 0.8367167853
C 2.5102883013 -1.0867168308 -2.0623646018
H 0.8551580606 -4.9263428436 -1.0632044093
H 2.4475340161 -5.5231172649 -0.5843896162
H 1.5921578102 -4.3739544088 0.4499297905
H 3.4539695005 -3.2846741939 -0.8816157647
H 2.6628956877 -3.7759474201 -2.3788264402
H -0.1857855889 -1.3909637867 -2.1831320122
H 0.5546738743 -2.7013075040 -3.1180241661
H -0.3156259005 -3.0610911211 -1.6142474179
H 0.7564765223 -0.5297589379 2.1680767932
H 0.7585346650 -2.9783253347 2.6181943266
H -0.9840192633 -3.0388644388 2.2924203501
H 0.4158832640 -1.5890541002 4.5839802556
H -2.1132328909 -0.9495860751 5.1555455260
H -3.7206299005 0.5396776344 4.2098588368
H -4.3169073048 2.1516306227 2.4932713043
H -2.5120401904 2.7911566873 0.9787586136
H -0.7323754576 1.6489853424 2.0534430044
H -2.0572431205 -0.9192342825 1.1104148951
H -0.7870371079 0.5695446312 -0.8003179808
H 0.6234740383 0.8487822306 0.2060759186
H -1.2201915448 3.0359832023 -0.8787861600
H 0.0677525013 3.3046969247 0.2977955232
H 1.7252946897 2.3725095298 -1.3029649792
H 1.3556449959 4.8006147469 -1.3241268246
H -0.0239004723 4.6212301107 -2.4331872498
H 2.8572456077 3.7618837381 -3.0093910226
H 0.4684445226 3.8967614693 -4.8980328250
H 2.0159288598 3.1179626740 -5.2248345844
H 1.3932663332 5.9199142355 -4.0830602995
H -3.5708116056 0.1237814479 -0.0913673867
H -2.9253647449 1.4636875261 -1.0593746584
H -4.4231632452 1.6702644081 -0.1407860248
H -0.9840170584 -3.0556067904 6.0108640416
H 0.0336129612 -4.0202168851 4.9231707583
H -1.6932085593 -3.8062218401 4.5681073728
H 1.9754653425 -0.1313518822 -2.0776292704
H 3.4708381829 -0.9462421301 -1.5596784588
H 2.6949527761 -1.3898009837 -3.0981440904
