22
CONF11
C -3.5654806806 0.4026540401 -2.0055650023
N -3.3843917722 0.2978191828 -0.5507714441
S -1.9807837193 -0.3206543397 0.0883182456
O -2.1312725894 -0.3160656276 1.5387926389
O -1.5959005493 -1.4832545232 -0.7035712966
C -0.6836811060 1.0318758727 -0.3043244013
C 0.6905337029 0.9484223700 0.4359440041
C 1.4592952450 -0.4001356561 0.2887036612
C 2.9524814496 -0.3459885169 0.7504896000
F 3.0507394993 0.1854531964 1.9764674878
F 3.6912876532 0.3764313505 -0.0993145689
F 3.4350782538 -1.5954042843 0.7803416464
F 0.8310531030 -1.3308107385 1.0379039934
F 1.4508064918 -0.7852174175 -1.0071589362
F 0.4793059721 1.1919499286 1.7438789598
F 1.4652268298 1.9439503243 -0.0734301432
F -0.4835312385 1.0417503153 -1.6384631320
F -1.2454839653 2.2162221580 0.0497478315
H -4.6392757814 0.4010665055 -2.2114842684
H -3.1246153146 -0.4778392072 -2.4762989350
H -3.1138480852 1.3068396550 -2.4289899215
H -3.7353685421 1.0704591217 0.0052686953
