44
CONF34
C 4.1501204015 0.1779478013 0.5634533585
C 3.0700132828 -0.3356336007 1.4544937384
N 1.8446723534 0.2045739570 1.2931540221
C 0.9037755720 -0.2787529416 2.1061123115
N 1.0863528817 -1.2251335848 3.0398647453
C 2.3369999876 -1.6778056699 3.0979179482
N 3.3714222524 -1.2775666988 2.3405202568
O 2.6480873607 -2.6231284586 3.9796441101
C 1.5901598466 -3.1108902472 4.8303014746
N -0.3839934059 0.2040832349 2.0181332716
C -0.9753463738 1.1402545342 1.1428093097
O -2.1607853446 1.3870936245 1.2362624625
N -0.1243442550 1.6713206581 0.2066929808
S -0.6206310619 2.8453793254 -0.9401056521
O -1.1656739010 4.0056889932 -0.2439147567
O 0.5609779996 2.9697164482 -1.7998118352
C -1.9633725361 2.0314211551 -1.8264964779
C -3.2054921837 2.6554660346 -1.7369662510
C -4.2849116778 2.1393300516 -2.4393287238
C -4.1139127898 1.0031974251 -3.2227634527
C -2.8714843400 0.3866554916 -3.2927291724
C -1.7620088083 0.8774487613 -2.5976535916
C -0.4687248438 0.1029292784 -2.6830142981
C -0.5194027430 -1.1275950396 -1.7651664566
C 0.7308937583 -1.9636430148 -1.8523525997
F 1.8479914905 -1.2452542173 -1.5701204817
F 0.6952602785 -2.9981449075 -0.9775752755
F 0.9052820195 -2.4904849964 -3.0886182981
H 4.1948316823 1.2693448939 0.6238734030
H 5.1101181565 -0.2562161568 0.8391047941
H 3.9161574000 -0.0754932447 -0.4753417165
H 0.7886021739 -3.5504130604 4.2313891600
H 2.0628233529 -3.8675955809 5.4556185465
H 1.1854677480 -2.3016191888 5.4433198202
H -1.0422997358 -0.1949555133 2.6727639736
H 0.8665163560 1.3895774656 0.2270318150
H -3.3118502893 3.5333629911 -1.1117353537
H -5.2529715112 2.6232585808 -2.3716530895
H -4.9494130432 0.5945403997 -3.7817219487
H -2.7459241464 -0.5012587409 -3.9069860693
H 0.3884734328 0.7264341056 -2.4293073940
H -0.3305519951 -0.2298150657 -3.7171547837
H -0.6403530797 -0.8300307496 -0.7200890696
H -1.3615527118 -1.7775945170 -2.0229109786
