52
CONF66
C -0.4251740872 -2.0778048125 -1.8773618312
C -0.9263386679 -1.9823998841 -0.4656160754
C -1.9221231972 -1.1736418904 -0.0639411314
C -2.7442246741 -0.3289045014 -0.9484564553
C -2.7275890107 1.2311976951 -0.8807692224
C -3.9535553445 0.4191349737 -0.4760430414
C -4.3907288780 0.3565131984 0.9694215435
C -5.1142288829 0.5166814394 -1.4451152847
C -1.8369157863 1.8974844635 0.0732793037
O -1.5866451724 1.5711951462 1.2178528394
O -1.2531702172 2.9797715772 -0.5284473746
C -0.2822221418 3.6986268636 0.2524826262
C 1.0899146860 3.0723162662 0.2063110751
C 1.3179601887 1.8256321123 -0.3716576765
C 2.6016405545 1.2950795248 -0.3644338130
C 3.6747783895 1.9783892879 0.1929620222
C 3.4396743149 3.2248411281 0.7673174053
C 2.1589874861 3.7685369138 0.7767825990
O 2.7969139558 0.0708239394 -0.9940095377
C 3.1224808506 -1.0215157014 -0.2166075965
C 3.5254958617 -2.1621014097 -0.9118968741
C 3.8307624432 -3.3197133592 -0.2061086206
C 3.7429774084 -3.3458481776 1.1858837433
C 3.3391714231 -2.1999155067 1.8650491133
C 3.0229529451 -1.0316277777 1.1738665062
C -0.2276187712 -2.8892445882 0.5063564344
H -0.8812861376 -1.3489616263 -2.5492827314
H 0.6612469035 -1.9232996838 -1.8934940867
H -0.6002408896 -3.0836521786 -2.2807443955
H -2.1717278431 -1.1701659489 0.9933878026
H -2.7973095974 -0.6604758499 -1.9817504534
H -2.7870288576 1.7264750205 -1.8439002913
H -4.9934371275 -0.5450444892 1.1267886656
H -5.0176295929 1.2244437586 1.2012003183
H -3.5547697465 0.3486979188 1.6669413920
H -5.7684664262 -0.3551089926 -1.3320309470
H -5.7070713229 1.4158429206 -1.2440950032
H -4.7694902583 0.5543667636 -2.4824909573
H -0.2534130632 4.7007320971 -0.1839570193
H -0.6266892468 3.7760632076 1.2893956026
H 0.5186240205 1.2529544232 -0.8295130873
H 4.6667550285 1.5390128513 0.1782102789
H 4.2645850693 3.7775342359 1.2056075788
H 1.9875790940 4.7424883613 1.2268358966
H 3.5895400724 -2.1279221385 -1.9946102642
H 4.1422236782 -4.2063559138 -0.7496959090
H 3.9840791733 -4.2509045062 1.7332140077
H 3.2574944050 -2.2088091351 2.9476543893
H 2.6964726518 -0.1483762185 1.7107317846
H -0.6011064113 -2.7597824272 1.5257282271
H 0.8532833048 -2.7040354434 0.5023080821
H -0.3653906516 -3.9392231071 0.2157249418
