33
CONF103
C 4.4190266424 0.8206593361 -0.3990973972
C 5.9302858757 1.0471168082 -0.4700010055
O 6.6734541564 0.2212737930 0.4270796567
C 3.8409232107 1.0559576212 0.9804271683
C 2.3167064614 1.4072682597 1.0628713116
C 1.3281216867 0.2610299557 0.6679197591
C -0.1360245371 0.7649811752 0.3970532827
C -1.2050894875 -0.3839859099 0.4683501736
C -2.5577231761 -0.0078892537 -0.2346824004
C -3.7563487039 -0.9133996491 0.2133400437
C -4.9826253192 -0.8685933833 -0.7579691650
F -6.0244806246 -1.4639889738 -0.1629999821
F -5.3094609035 0.4007810503 -1.0381200507
F -4.7148046623 -1.5152674836 -1.8969723061
F -4.1803686626 -0.5060223715 1.4283858085
F -3.3448837665 -2.1998026419 0.2944537912
F -2.8649161592 1.2762791054 0.0585376319
F -2.3984630836 -0.1274148836 -1.5719129213
F -1.4556047291 -0.6599520283 1.7681914566
F -0.7052744660 -1.4880069206 -0.1309372162
F -0.4604364345 1.7047499635 1.3121527146
F -0.1783074300 1.3174375289 -0.8374182775
F 1.2966886835 -0.6476426542 1.6705197627
F 1.7735709127 -0.3447795917 -0.4579342537
F 2.0366719386 1.7652729466 2.3411284559
F 2.0813420494 2.4777888702 0.2579186139
F 4.0286953940 -0.0293404461 1.7998604549
F 4.4613744680 2.1200973475 1.5884358469
H 3.9342532015 1.4994733556 -1.1085990631
H 4.1766759974 -0.2021502777 -0.6995537454
H 6.1732817818 2.0789397447 -0.2057893271
H 6.2397710746 0.8823762555 -1.5107142445
H 6.5403699847 -0.6989953925 0.1657628402
