39
CONF83
C 4.9483011935 -1.2740733504 3.0205541954
C 4.6002099573 0.2147553326 2.9819364979
C 3.2747440231 0.5207202369 2.2793941571
C 3.3078158227 0.1918436455 0.7859309764
N 2.0468807747 0.5274909554 0.1240528104
C 1.0292578270 -0.3413989166 0.0571937735
O 1.0817765383 -1.5206542256 0.4070525249
N -0.1754581209 0.1935744475 -0.4923208822
C -0.6447544009 1.5164427742 -0.4808008741
C -0.2405071345 2.6591592615 0.1988746376
C -0.9969893360 3.8138064768 -0.0046558858
C -2.1220767767 3.8162060316 -0.8378482056
C -2.5418712929 2.6580353371 -1.4858601192
C -1.7958750059 1.4977062784 -1.2963871285
N -2.0421974933 0.2191951989 -1.7812172589
C -1.0845363418 -0.5206722428 -1.2912720093
N -0.8906092719 -1.8672294920 -1.4714284481
C -1.4886268700 -2.6496596619 -2.4415340136
O -2.2471870122 -2.2755789956 -3.3085058114
O -1.0741826785 -3.9234696051 -2.2653271577
C -1.6040278580 -4.8695935634 -3.2243423539
H 4.1345210875 -1.8510096919 3.4741285288
H 5.8531678874 -1.4470985267 3.6111166199
H 5.1278563309 -1.6787694036 2.0196435128
H 5.4077898212 0.7727424690 2.4896114566
H 4.5415660409 0.5972867546 4.0074458132
H 2.4639835073 -0.0500511301 2.7508128040
H 3.0317264235 1.5840066850 2.3955468723
H 3.5012778714 -0.8707276698 0.6203553902
H 4.0995634977 0.7616131604 0.2887098122
H 0.6055712801 2.6736293093 0.8765513091
H -0.7059892330 4.7264680828 0.5047082397
H -2.6838093267 4.7353546805 -0.9690886727
H -3.4274929558 2.6460490914 -2.1126077366
H -2.6939115361 -4.9041199171 -3.1577950447
H -1.1722737685 -5.8293663970 -2.9439478206
H -1.3002455081 -4.5923663726 -4.2364616898
H 1.9449171905 1.4462315189 -0.2793586289
H -0.2155593042 -2.3007038088 -0.8465440090
