45
CONF9
O -0.9269777299 0.0660232082 -2.7811231433
C -2.1355169575 -0.6677239154 -2.7157136496
C -2.7042014921 -0.7592377662 -1.3133988962
O -1.8213838267 -1.5880082056 -0.4883006676
C -1.5365700742 -0.9500020272 0.7289735338
C -1.5362503187 -1.9788632704 1.8543660454
O -1.1902601445 -1.3742457961 3.1016996895
O -0.2906638739 -0.2332963153 0.6955694912
C 0.8596791310 -0.9403283873 0.2307289384
O 1.3015661022 -0.4039784637 -1.0011786933
C 1.7367533770 0.9835509829 -0.9526820892
C 2.2163334907 1.3153536134 -2.3576591321
O 3.3018703682 0.4902403643 -2.7667459744
C 2.8309722593 1.1662265017 0.0966233777
O 3.0950091631 2.5651346236 0.1645107176
C 2.3791657078 0.6212403788 1.4398184286
O 3.4711246648 0.7496016352 2.3461284467
C 1.9638686685 -0.8364522460 1.2829806859
O 1.6053272368 -1.4241279358 2.5212176184
C -2.6149493510 0.1360512213 0.8817068006
O -2.2925624709 1.1664510641 1.8003717143
C -2.8313500785 0.5666083184 -0.5690097486
O -4.1099463540 1.1221841664 -0.8287194153
H -0.2695491248 -0.3553198453 -2.2015136112
H -2.8645234888 -0.1437663273 -3.3445851950
H -2.0142549980 -1.6875918606 -3.1134064486
H -3.6902212214 -1.2443289027 -1.3492316572
H -0.7953474172 -2.7631731026 1.6666099601
H -2.5288146273 -2.4482758755 1.8955038620
H -1.6882076809 -0.5467866534 3.1827912212
H 0.6064655659 -1.9847249614 0.0209977379
H 0.8801432146 1.6274984294 -0.7044311922
H 2.5835407401 2.3449322209 -2.3582445651
H 1.3702033272 1.2424444333 -3.0553266661
H 2.9776464888 -0.4179288531 -2.7801550022
H 3.7279210966 0.6141677486 -0.2253269163
H 3.7337051725 2.6919107565 0.8767463625
H 1.5188875331 1.2144893083 1.7951814743
H 3.2524178629 0.2157055799 3.1216627967
H 2.8268958537 -1.4047797002 0.9126344793
H 0.7085157230 -1.1322009014 2.7750816207
H -3.5421744773 -0.3254145150 1.2439268601
H -1.4006811803 1.4682420695 1.5740449563
H -2.0236308861 1.2464573349 -0.8801449118
H -4.1399739684 1.9960419636 -0.4229790429
