35
CONF77
C -0.6665920469 2.4929504725 1.6890188024
C 0.6303648172 2.6501292470 2.4570315138
O 1.1028287254 1.4600595229 3.0633373391
C 1.7945581132 0.5460452614 2.2059817754
C 0.9892882741 -0.7397674068 2.0574382994
O 1.7679398494 -1.7187726053 1.3711725591
C 1.5642885768 -1.7393617367 -0.0407782802
C 0.4860650224 -2.7588267758 -0.3899573003
O 0.4150314195 -2.9284226462 -1.8095671390
C -0.7836184858 -2.4983832897 -2.4301178837
C -0.8657442148 -1.0042023844 -2.6697525294
O -1.1244533264 -0.3275588739 -1.4440853953
C -1.2934844214 1.0677914559 -1.6445885097
C -1.6040123624 1.7385871878 -0.3309207492
O -0.4241897070 1.8276607557 0.4539071258
H -1.3911356194 1.9266441490 2.2980472532
H -1.0892711414 3.4962657931 1.4973303074
H 1.3950709805 3.0886239555 1.7962884950
H 0.4498373394 3.3524983483 3.2798630976
H 2.7589468151 0.3061618469 2.6726183842
H 1.9854520184 0.9924842318 1.2216678391
H 0.0424416407 -0.5357706854 1.5374915778
H 0.7632828741 -1.1404531638 3.0521392949
H 2.5105770824 -2.0425677227 -0.5030298936
H 1.2877161536 -0.7476508033 -0.4263935982
H -0.4820369139 -2.4456165966 0.0212210111
H 0.7573414653 -3.7252152655 0.0549604805
H -1.6656939850 -2.8254274154 -1.8568586656
H -0.8095671896 -2.9967390402 -3.4067869896
H 0.0783089069 -0.6488641676 -3.1157879862
H -1.6819182132 -0.8037384648 -3.3878314775
H -2.1305330280 1.2493202741 -2.3413680946
H -0.3840916201 1.5130269293 -2.0814285249
H -1.9980751406 2.7496960778 -0.5344822769
H -2.3849221771 1.1693929268 0.2003146424
