57
CONF69
C -4.1601433288 -1.2221777370 -1.7892245803
Si -2.5927518698 -1.7332057455 -0.8987037321
C -1.9977547165 -3.3977742328 -1.5203135093
C -2.8848930866 -1.7809551627 0.9478492929
O -1.4140221995 -0.5971029312 -1.1724060765
Si -0.4505563272 -0.0015825480 -2.3662113824
C 0.8496486819 -1.2509507064 -2.8366000808
C -1.4828128798 0.5112301834 -3.8324614950
O 0.3144518266 1.3273193618 -1.7615697912
Si 0.1496024882 2.4186953439 -0.5357580238
C -1.6416058868 2.6506942734 -0.0826727913
C 0.9567300030 3.9999372181 -1.1029290155
O 0.9232964899 1.8481148176 0.8051707027
Si 2.4633371314 1.4775027458 1.2801474351
C 3.4322975633 0.8054606572 -0.1655095815
C 3.2612376097 2.9896543370 2.0172399433
O 2.3541486052 0.3389037930 2.4619043586
Si 1.3663822985 -0.9515931478 2.8182336502
C -0.2557149681 -0.3022049881 3.4929193690
C 2.2599672200 -1.9638886665 4.1131003800
C 1.0801404611 -1.9661173738 1.2686371926
H -4.4799670428 -0.2229089300 -1.4724394672
H -4.0155665488 -1.2046567373 -2.8749154510
H -4.9738304132 -1.9227612242 -1.5686799373
H -1.0446571319 -3.6692188117 -1.0519666183
H -2.7264718191 -4.1827787022 -1.2880494828
H -1.8512753125 -3.3848526202 -2.6063519633
H -3.1842301704 -0.7959026033 1.3233189686
H -1.9788043000 -2.0855881226 1.4821371340
H -3.6804568848 -2.4932250041 1.1943080672
H 1.5848036567 -0.8060380213 -3.5163608108
H 0.4000273423 -2.1133889568 -3.3404191523
H 1.3804437852 -1.6141492452 -1.9500109636
H -0.8597581614 0.9909216505 -4.5953963572
H -1.9726361304 -0.3549009142 -4.2908977344
H -2.2605958022 1.2215897407 -3.5304041762
H -2.0688446942 1.7143872919 0.2908365444
H -2.2255807856 2.9687831399 -0.9534436634
H -1.7475578205 3.4142057908 0.6956950018
H 2.0018821123 3.8269485323 -1.3834360173
H 0.4371410547 4.4104432899 -1.9756706831
H 0.9378934351 4.7543837318 -0.3090218074
H 4.4377565526 0.5048687770 0.1491710204
H 3.5344437087 1.5583132701 -0.9553001790
H 2.9316929950 -0.0682167536 -0.5963608834
H 3.3651068651 3.7798634871 1.2655323145
H 4.2590041967 2.7566841418 2.4047355480
H 2.6567109425 3.3809051003 2.8428472943
H -0.0839560820 0.3299796137 4.3715818545
H -0.9167551474 -1.1240773818 3.7907572750
H -0.7775231841 0.2971502610 2.7385515108
H 2.4633843377 -1.3636621603 5.0068776841
H 1.6568860967 -2.8272605165 4.4158285623
H 3.2156702671 -2.3367805255 3.7282581424
H 0.5393357812 -1.3855053655 0.5122990779
H 2.0312375034 -2.2948099551 0.8341501588
H 0.4840632015 -2.8587049650 1.4920825047
