42
CONF119
C -5.9641491535 2.5656137270 1.4696606162
C -4.5958201301 2.2815977606 2.0832704881
C -3.9170512365 1.0464116402 1.5357087425
O -4.7287794003 -0.1060000933 1.7063960634
C -4.1967485382 -1.0523497149 0.7732836687
C -3.7441874310 -0.1788653511 -0.4169413100
O -3.7142941029 1.1554728228 0.1220487512
C -2.4064591050 -0.5692138628 -1.0091195351
O -1.4239042535 -0.5145389746 0.0315653699
C -0.1387638366 -0.8469746764 -0.2847332439
C 0.7798368545 -0.7739073130 0.7707422185
C 2.1112391108 -1.0936106458 0.5595491818
C 2.5299708451 -1.4807054958 -0.7120758376
C 1.6305194068 -1.5556841628 -1.7622993125
C 0.2859083136 -1.2429958627 -1.5545453923
O 3.8493197225 -1.8727614269 -0.9288709314
C 4.8375224517 -0.9132795452 -0.8470925918
C 4.5805700685 0.4563046322 -0.8973952579
C 5.6510385679 1.3475427369 -0.8439294239
C 6.9609908921 0.8861206686 -0.7450185064
C 7.2004535668 -0.4876014909 -0.7009925226
C 6.1450187529 -1.3908362755 -0.7493567668
H -6.3863282152 3.4801835116 1.8959118785
H -6.6623211399 1.7473445795 1.6647623319
H -5.8893167027 2.6990967282 0.3869716166
H -4.6755390312 2.1529715113 3.1689360107
H -3.9146505994 3.1241562605 1.9180950717
H -2.9399782122 0.8786642346 2.0239872290
H -3.3471350366 -1.5915256873 1.2131624053
H -4.9857582799 -1.7568653963 0.5040307167
H -4.4832237379 -0.1993274467 -1.2275853356
H -2.1374802388 0.1235911982 -1.8170665871
H -2.4767874942 -1.5866525620 -1.4213724279
H 0.4310416849 -0.4712719546 1.7528315553
H 2.8270973785 -1.0429223762 1.3739857826
H 1.9762627380 -1.8605927427 -2.7447153285
H -0.4038383669 -1.3101477484 -2.3866039551
H 3.5635856479 0.8231192554 -0.9795635581
H 5.4508416822 2.4139610734 -0.8845571644
H 7.7873523653 1.5878424709 -0.7034183187
H 8.2168460017 -0.8615670330 -0.6241467418
H 6.3170993657 -2.4617450847 -0.7134995325
