55
CONF232
C -0.8063760306 -2.7966757983 1.4067812096
C -0.6693442496 -1.8336622981 0.2537208487
O -0.6760326827 -0.4830341941 0.8090386680
C -0.7717962909 0.5230892826 -0.0801695689
O -0.7832911146 0.3633419902 -1.2841798024
C -0.7750411851 1.8879567468 0.6114249226
C -1.9043600449 2.7753139195 0.0847351876
C -3.3107846034 2.3503526340 0.5392781314
C -3.7924515161 1.0472662475 -0.0482744937
C -4.1545316616 0.9735873361 -1.3980529057
C -4.5722459585 -0.2276144142 -1.9606671427
C -4.6403824986 -1.3809127610 -1.1789173128
C -4.2932480734 -1.3184832693 0.1676816381
C -3.8745308269 -0.1118333206 0.7267637953
N 0.5086840525 2.5816055422 0.4172685810
C 1.6833407843 1.8827984605 0.9415633280
C 2.8009140674 2.8910324833 1.2454968818
C 2.2709299840 0.8740455642 -0.0480582816
O 2.3512319215 1.1836942435 -1.2592429489
N 2.7608150382 -0.2863143751 0.4101952726
C 2.7010552752 -0.7747603746 1.8083684681
C 3.2935130809 -2.1780521050 1.7049282880
C 4.3411037340 -2.0298975366 0.5986757570
C 3.6431589988 -1.1407975544 -0.4258827532
C 2.8388455239 -1.9308903966 -1.4755976370
O 2.1479465570 -1.1813572223 -2.3345116859
O 2.8408104520 -3.1416051211 -1.5528864513
H -1.7483734027 -2.6325941603 1.9382482642
H -0.8006475760 -3.8204237384 1.0212512715
H 0.0213245746 -2.6922887628 2.1142589561
H 0.2671403329 -1.9726912584 -0.2962347868
H -0.9063522916 1.7279210240 1.6884714450
H -1.7093529246 3.7878962071 0.4538738277
H -1.8552743887 2.8082311364 -1.0106324399
H -3.3294190874 2.2881072607 1.6334953827
H -4.0057823293 3.1478423177 0.2516525703
H -4.1004889349 1.8685639930 -2.0130755415
H -4.8478269632 -0.2659236467 -3.0103863954
H -4.9657387820 -2.3194208778 -1.6170260990
H -4.3473541615 -2.2097799083 0.7860524630
H -3.6005953074 -0.0698667176 1.7776997064
H 0.6504029420 2.7683940230 -0.5742354114
H 2.4539806442 3.6010820565 1.9999167413
H 3.6958257511 2.3827781210 1.6192390560
H 3.0659515217 3.4389593072 0.3362373761
H 1.6704669935 -0.7726051827 2.1709990642
H 3.3133387592 -0.1329210104 2.4542917267
H 3.7155516068 -2.5114594459 2.6549961366
H 2.5202458191 -2.8904647482 1.3971118468
H 5.2263664133 -1.5110747503 0.9795704601
H 4.6463461454 -2.9802522767 0.1601836088
H 4.3395708295 -0.4959317495 -0.9778178458
H -1.5031277319 -1.9169944714 -0.4497615179
H 1.3916624868 1.3847409103 1.8706712962
H 2.2424970257 -0.2106104852 -2.0809306566
