49
CONF30
C -3.5056642194 1.5403332897 -0.1258246573
C -3.2810209777 0.6814490755 1.1009214143
C -1.8647533392 0.5295620251 1.6933796406
C -2.5891652258 -0.6439484974 0.9890584946
C -2.9859527343 -1.7940737478 1.8946095738
C -2.0889431834 -1.1393289647 -0.3508594600
C -0.6814476693 1.1615476626 1.1171598722
O -0.4377307960 1.4163598172 -0.0451500033
O 0.2177150568 1.4533349502 2.1280146762
C 1.4927516477 1.9817354772 1.6759352069
C 1.9631194355 2.8561428095 2.7479982304
N 2.3562415715 3.5515890744 3.5816457579
C 2.4588559643 0.8558960139 1.3806526977
C 3.0673782728 0.1469931020 2.4176809957
C 3.8960124875 -0.9283756332 2.1154176762
C 4.1056969927 -1.3113964873 0.7938807197
C 3.4861359245 -0.5980629277 -0.2280372504
C 2.6727595376 0.4969138985 0.0525310903
O 3.7690983782 -0.9809923318 -1.5228850249
C 2.7724166943 -0.8766462458 -2.4841011341
C 3.1537984045 -0.4220510540 -3.7415891996
C 2.2054335176 -0.3724456953 -4.7603991783
C 0.8906137071 -0.7660990757 -4.5207923804
C 0.5268859491 -1.2214140880 -3.2541187198
C 1.4649568629 -1.2847562906 -2.2280122833
C -4.3846117214 0.8753009761 2.1237616715
H -4.4452176509 1.2390111530 -0.6031671928
H -2.7057657849 1.4735015400 -0.8601830271
H -3.6041785316 2.5901077781 0.1715065988
H -1.8277087840 0.4514367066 2.7748644303
H -2.1667960945 -2.5187764895 1.9491497765
H -3.2236562870 -1.4789337883 2.9112307051
H -3.8613301996 -2.3067621179 1.4788972089
H -1.7579771817 -0.3434790038 -1.0147920684
H -2.8916692979 -1.6964380914 -0.8476469192
H -1.2477133928 -1.8259340181 -0.2026082062
H 1.3373997519 2.5921348731 0.7789304874
H 2.8956363467 0.4317851185 3.4510416391
H 4.3773185244 -1.4820475172 2.9148610449
H 4.7415349543 -2.1547388115 0.5459937700
H 2.2006478831 1.0528942114 -0.7494311000
H 4.1808031796 -0.1151876544 -3.9100505161
H 2.4981892305 -0.0180619878 -5.7437689880
H 0.1539422869 -0.7216300533 -5.3160448329
H -0.4928752995 -1.5397999558 -3.0609407872
H 1.1862792114 -1.6459885492 -1.2434074622
H -5.3355898734 0.5135125636 1.7157370398
H -4.4982006947 1.9415627623 2.3462522198
H -4.1936532365 0.3542640035 3.0623667391
