33
CONF21
C -4.0653091168 1.0190794895 0.0228952383
C -2.5490940511 0.9680829904 0.2677934678
C -2.3058063412 0.4013488869 1.6591681618
O -2.6247312993 1.3085385913 2.6134528020
O -1.9118436092 -0.7125473423 1.9186177519
C -1.7552377043 0.1945014562 -0.7636230991
C -2.3473690710 -0.5622722897 -1.7723493898
C -1.5620558039 -1.2475141740 -2.7019401875
C -0.1799634433 -1.1908064814 -2.6295349499
C 0.4311218804 -0.4589308099 -1.6037394539
C -0.3616492215 0.2324723158 -0.6879978434
C 1.9204715077 -0.3927245825 -1.5588233575
O 2.5743192752 -0.4534375478 -2.5943570537
C 2.6036544817 -0.2603745028 -0.2395404112
C 2.0660877174 -0.8039119877 0.9339162862
C 2.7726740704 -0.7189041993 2.1290923501
C 4.0067056303 -0.0747410699 2.1663510107
C 4.5467802545 0.4689657340 1.0006596382
C 3.8557984032 0.3648948312 -0.1983664036
H -4.2699873085 1.4354406589 -0.9668951987
H -4.5451565695 1.6541671046 0.7700751321
H -4.5093665598 0.0208505162 0.0813887340
H -2.1771506286 2.0005680759 0.2840378972
H -2.4968383243 0.8812993327 3.4766057379
H -3.4270573914 -0.6234711534 -1.8491969157
H -2.0413271584 -1.8288517641 -3.4831217283
H 0.4427116682 -1.7123230038 -3.3484440050
H 0.1117389723 0.8257313660 0.0895093201
H 1.1098161104 -1.3161858708 0.9080678966
H 2.3586763781 -1.1573819208 3.0313888613
H 4.5515485239 -0.0004156784 3.1023088100
H 5.5092336311 0.9697786136 1.0300195468
H 4.2686052931 0.7690745105 -1.1166971317
