43
CONF119
C 4.0422646526 -1.9732868649 -1.3145893821
C 2.6968168583 -2.5008906499 -0.8755487766
O 1.8881253762 -1.3425674719 -0.5448267587
N 0.6266332575 -1.7599440736 -0.1542170859
C -0.1503368337 -0.7908615888 0.1343009703
C -1.5436991331 -1.0240394061 0.5443507291
C -1.9692536863 -0.5900591795 1.8180693625
C -3.2970198839 -0.7571187205 2.2088308036
C -4.2018839287 -1.3460724556 1.3321646638
C -3.7906787001 -1.7765379284 0.0810158358
C -2.4580427057 -1.6311574514 -0.3287216761
O -2.0681384527 -1.9853095798 -1.5847387180
C -1.7834814839 -3.3951808506 -1.7538626031
Cl -4.9684704677 -2.4569946590 -1.0266450267
O -1.0041467287 -0.0519352327 2.6003288701
C -1.3802006145 0.4113129219 3.9070461256
O 0.2799592916 0.5350142858 0.1608348079
C 0.4692932030 1.1640407950 -1.0487093031
O 0.1670647159 0.6601920908 -2.1048637745
C 1.0555243483 2.5089600617 -0.8713404958
C 1.2720264280 3.2802121454 -2.0192257929
C 1.8233048199 4.5493052914 -1.9077762151
C 2.1605992030 5.0547938984 -0.6526381214
C 1.9462531021 4.2888322417 0.4919113229
C 1.3951250869 3.0172982356 0.3880668501
H 4.6893968724 -2.8144209448 -1.5786416841
H 3.9400983772 -1.3270846369 -2.1911455780
H 4.5219281254 -1.4076656489 -0.5106506433
H 2.1989407796 -3.0606750826 -1.6760735311
H 2.7797992132 -3.1399762295 0.0114018249
H -3.6407482586 -0.4377645939 3.1837927853
H -5.2385239046 -1.4641604078 1.6277124773
H -2.6506193875 -4.0041588207 -1.4794489045
H -0.9156385926 -3.6729584382 -1.1480924567
H -1.5598770342 -3.5278170024 -2.8132264068
H -0.4664756676 0.8089256653 4.3481072480
H -2.1340774108 1.2029527830 3.8366043143
H -1.7586534851 -0.4149118814 4.5189002877
H 1.0048752694 2.8735847198 -2.9883864265
H 1.9910783592 5.1460348980 -2.7983278410
H 2.5917164490 6.0472676024 -0.5666646080
H 2.2098114129 4.6837972140 1.4675764744
H 1.2293310418 2.4210255635 1.2773461358
