82
CONF95
C -3.5092844206 -0.5339184442 -3.6359563327
C -4.5865192483 0.0607419526 -2.7693419604
C -5.8729140857 -0.0260165836 -3.1273437766
C -4.1155657252 0.7725250708 -1.5229038273
C -5.2107496045 1.3819050913 -0.6363418349
C -4.5177898257 1.5661058274 0.7106390978
C -3.6954769140 0.2728138292 0.8990370465
C -3.2653363771 -0.1232092675 -0.5571723900
C -1.7377978627 -0.0539493546 -0.7692311842
C -1.1902159174 1.3980583128 -0.7729193819
C 0.1245049742 1.5608351746 -0.0142126360
C 1.1118819359 0.4716687253 -0.4298094295
C 2.6019192774 0.8292737075 -0.0102841253
C 2.6966180713 1.5204773946 1.3686855211
C 4.1397317666 1.8394478977 1.7758039977
C 5.0555854165 0.6217597979 1.7992079537
C 4.9884458293 -0.1947977405 0.4810862348
C 3.5071376440 -0.4413165055 0.0188488524
C 2.8693696942 -1.5972799608 0.8461661422
C 1.3698697149 -1.4889529340 1.1202349765
C 0.5740708272 -0.9560493179 -0.0710462917
C -0.9955050778 -0.9750112171 0.2404822536
C -1.3661037735 -0.5568297520 1.7050525423
C -2.4959180641 0.4801765913 1.8318897416
C -1.5017010945 -2.4233270721 0.0498856157
C 0.8703173461 -1.8640325680 -1.2871825605
C 5.8220179052 0.5663716408 -0.5746524689
C 5.7240165837 -1.5396374312 0.6500039040
O 4.6918346588 -0.1295338594 2.9781287569
C 3.0483598062 1.8253023791 -1.1073371376
C -4.6047251568 -0.8495401716 1.4422496830
O -5.1386124339 -0.5999430005 2.7497469313
H -2.7316000633 0.2086088755 -3.8529349505
H -3.9180058221 -0.9025477177 -4.5801777822
H -3.0132161971 -1.3699111793 -3.1285174189
H -6.6736359499 0.3994016672 -2.5320887040
H -6.1582772303 -0.5307933482 -4.0465984513
H -3.4719683883 1.5958443761 -1.8667243206
H -5.6129719920 2.3135237602 -1.0472958781
H -6.0478060554 0.6833166533 -0.5275288486
H -3.8383121994 2.4256328562 0.6659356979
H -5.2150646472 1.7608346945 1.5339749603
H -3.5755659343 -1.1606912545 -0.7341917019
H -1.5356979946 -0.4761698045 -1.7586391960
H -1.0209075835 1.7067509649 -1.8130052404
H -1.9287902571 2.0988697544 -0.3726876676
H -0.0412149550 1.5315440925 1.0664027261
H 0.5287402649 2.5555547237 -0.2302095797
H 1.1283250498 0.5029115624 -1.5297216448
H 2.2412651773 0.8911411306 2.1399652269
H 2.1302743612 2.4580631549 1.3572108184
H 4.5679279415 2.5880365258 1.1024352317
H 4.1498674437 2.2906491912 2.7748452523
H 6.0982236334 0.9628055242 1.9185735125
H 3.5889730841 -0.7836200672 -1.0220950797
H 3.0813021664 -2.5410126406 0.3311735116
H 3.3588455120 -1.6605331306 1.8178189254
H 1.2220024577 -0.8372828051 1.9835364445
H 0.9948093265 -2.4760999383 1.4183385674
H -1.6386993258 -1.4608727614 2.2635005491
H -0.5048826106 -0.1444722595 2.2341791933
H -2.8533967491 0.4885628105 2.8685657078
H -2.0860746554 1.4781288064 1.6521551251
H -1.5292298072 -2.7168879250 -1.0034473440
H -2.5084919579 -2.5472008282 0.4506618036
H -0.8619367564 -3.1310722011 0.5867173033
H 1.8947470475 -1.7089004345 -1.6311253394
H 0.2118458087 -1.6300657210 -2.1303499793
H 0.7606196530 -2.9257866535 -1.0493497319
H 5.6547081822 0.1407774856 -1.5694970117
H 6.8871296424 0.4636164307 -0.3399640986
H 5.6056227506 1.6322031563 -0.6244844397
H 5.2601613727 -2.2153668933 1.3703353908
H 6.7568978428 -1.3577350006 0.9703404822
H 5.7627869303 -2.0625595983 -0.3127999820
H 5.3211717540 -0.8544247651 3.0739582339
H 2.2245744969 2.5002363497 -1.3597024519
H 3.3289627798 1.2907651619 -2.0211844632
H 3.8855647577 2.4582763213 -0.8173820012
H -5.4184449070 -1.0443054627 0.7286794789
H -4.0254555087 -1.7725478345 1.5405341884
H -5.8271695472 0.0706862789 2.6704518770
