42
CONF191
C -7.3156821569 0.2517656664 1.0603450535
C -5.9326907863 0.4028002054 1.6884168824
C -4.8912287957 0.8070349671 0.6756628251
O -5.1643342432 2.1003401441 0.1570348408
C -3.9215443450 2.5277964787 -0.3845794811
C -2.8621261967 1.8661892673 0.5313871713
O -3.6100052124 0.9090721994 1.2895286831
C -1.7612271001 1.2117080450 -0.2761429531
O -0.7598425495 0.7643003932 0.6283211037
C 0.3142998240 0.0982932677 0.1098980456
C 1.2425745207 -0.3684119868 1.0475633900
C 2.3697070871 -1.0551899802 0.6319504314
C 2.5824814174 -1.2720211800 -0.7292873179
C 1.6696767729 -0.8139184744 -1.6638739898
C 0.5259450329 -0.1300575203 -1.2498345168
O 3.6602581427 -2.0226477785 -1.1751916531
C 4.9337000714 -1.6113223205 -0.8453556867
C 5.2488203771 -0.2935807383 -0.5185365630
C 6.5728591136 0.0372566364 -0.2448177251
C 7.5750147385 -0.9263567468 -0.2989664905
C 7.2443034902 -2.2375554865 -0.6343229990
C 5.9275927929 -2.5866205523 -0.9050048118
H -7.6522379717 1.1974840933 0.6276845217
H -8.0480072309 -0.0610686800 1.8092378818
H -7.3087027988 -0.5010480374 0.2649187999
H -5.6035585630 -0.5405736724 2.1373962891
H -5.9369069148 1.1604985350 2.4791381357
H -4.8418934438 0.0839504752 -0.1653953897
H -3.8104910034 2.1791019827 -1.4257449091
H -3.8889145156 3.6192417434 -0.3663257672
H -2.4206640466 2.5771988981 1.2392610125
H -1.3394811679 1.9451604893 -0.9844749649
H -2.1740684288 0.3662118080 -0.8478563598
H 1.0519564576 -0.1917325562 2.1004026681
H 3.0886396408 -1.4265101588 1.3547339627
H 1.8519689945 -0.9989223611 -2.7168606364
H -0.1772487846 0.2164861068 -1.9966476349
H 4.4703665290 0.4599897326 -0.4818125792
H 6.8190739263 1.0638595381 0.0078123060
H 8.6037569665 -0.6588917292 -0.0838274219
H 8.0166473371 -2.9987725800 -0.6805810149
H 5.6512142239 -3.6024862558 -1.1652530378
