37
CONF78
C 0.5830045563 -1.1118372971 -2.9469398335
C -0.7524828441 -1.8048169410 -2.7899701175
O -0.9217316013 -2.3420098938 -1.4380360561
P -1.3255726824 -1.3638225493 -0.2544917577
O -2.0571866895 -0.1264190987 -0.6129725387
O -2.0116073694 -2.4125614328 0.7158746756
C -2.4433777547 -1.9791042213 2.0546588916
C -3.8371746554 -1.3967992054 2.0085106992
O 0.1047683954 -1.0497698261 0.4779136966
P 0.5568625677 0.3827047978 1.1235667912
O -0.2763156531 0.8270365211 2.2584699160
O 2.0576466250 0.0631725675 1.5186338413
C 3.0569588133 -0.3016996921 0.5103326915
C 3.9858247558 0.8645499239 0.2661541681
O 0.6601090769 1.3564348296 -0.1348596190
C -0.2438811803 2.5062145302 -0.2695951429
C 0.3843923127 3.7335254384 0.3470750795
H 0.7071404702 -0.8048800264 -3.9904643828
H 1.4024507215 -1.7873124995 -2.6845862097
H 0.6424027446 -0.2174479842 -2.3188940867
H -1.5870663723 -1.1305253541 -3.0050464972
H -0.8276948290 -2.6843474631 -3.4327861921
H -1.7174303162 -1.2625378119 2.4542029525
H -2.4032496932 -2.8923882713 2.6520791721
H -4.5447336152 -2.1164074615 1.5875239428
H -4.1532999461 -1.1524875556 3.0278059885
H -3.8583936618 -0.4825195665 1.4104800754
H 2.5549673110 -0.6207779586 -0.4090427366
H 3.5851474888 -1.1609376036 0.9315484495
H 3.4383992249 1.7143169283 -0.1494850788
H 4.4692542928 1.1736727571 1.1967025583
H 4.7619802940 0.5664039295 -0.4460495184
H -0.3870586589 2.6134472557 -1.3473314960
H -1.2036572575 2.2574005137 0.1878953087
H 0.5231082422 3.5972016654 1.4233667075
H 1.3523082150 3.9515773302 -0.1134272970
H -0.2748105181 4.5937504239 0.1911833571
