44
CONF93
C 5.1757564053 1.1604116390 -1.1246442443
C 3.7665451841 0.6010207024 -1.2853694595
C 2.7503038327 1.6142417614 -1.9339051533
N 1.4466694213 1.2502890836 -1.4310977038
C 1.3471688072 0.7368401465 -0.0603273868
S 3.0570200951 0.2504552468 0.4186474365
C 0.3277209198 -0.3335064589 -0.5868188456
C 0.5284091387 0.3516342615 -1.9610944315
O 0.1321174498 0.1742541943 -3.0885147216
N -0.9830366509 -0.4455163214 -0.0296922424
C -1.8788521455 0.5696854724 -0.0985011761
O -1.6049561459 1.6491509150 -0.6208185306
C -3.2887167261 0.2704089719 0.4375882923
C -3.3311260733 -0.8250153353 1.4778279429
C -3.8593541716 -2.0809611609 1.1714479016
C -3.8767533856 -3.1055559394 2.1116100357
C -3.3602360374 -2.8767146826 3.3862269566
C -2.8281559712 -1.6255302340 3.7122061367
C -2.8179217297 -0.6133562516 2.7615018006
O -3.4004882555 -3.9100950116 4.2776726179
N -3.8454251101 1.5242579190 0.9581685598
C 3.1095168678 3.0671207677 -1.6630896562
O 2.5747930392 3.5286903718 -0.5216008916
O 3.8202199419 3.7207708900 -2.3943470684
C 3.7891710237 -0.6773762407 -2.1239418094
H 5.8243691755 0.4056151410 -0.6715015737
H 5.1955406909 2.0546818469 -0.4962959508
H 5.5832707183 1.4106245006 -2.1096123179
H 2.7703301599 1.4849027373 -3.0204965448
H 0.9398838462 1.4422234102 0.6675900340
H -1.2416518559 -1.2951859933 0.4507516195
H -4.2657245263 -2.2632318341 0.1799879377
H -4.2924860782 -4.0786274100 1.8709896653
H -2.4255511628 -1.4511277037 4.7067671585
H -2.4040292104 0.3570090463 3.0181361269
H -3.0205055205 -3.6248224894 5.1193165121
H -3.7097065381 2.2493528491 0.2594183324
H -4.8475114876 1.4093903836 1.0704128121
H 2.7851344294 -1.0810187347 -2.2817682144
H 4.2356876524 -0.4649604832 -3.1022011120
H 4.3890436520 -1.4421054511 -1.6241046259
H 2.8577160803 4.4522452645 -0.4016079552
H -3.8262293465 -0.1014924636 -0.4556962823
H 0.7945031256 -1.3223181018 -0.6119090818
