45
CONF85
C 0.7487155755 -0.9824406262 -2.1230482547
O -0.3331649071 -0.1312279230 -1.6768533242
C -1.4703466806 -0.7868217341 -1.3617709117
O -1.6290208877 -1.9909799757 -1.4227508887
N -2.4508144948 0.1144802794 -1.0048813429
C -2.2393115896 1.4904650116 -0.6982558496
C -2.1557475850 2.3879650022 -1.7615513357
C -1.9863988093 3.7464985854 -1.5217262818
C -1.9229933272 4.2109567049 -0.2111462721
C -2.0029612203 3.3110397987 0.8469456278
C -2.1534580799 1.9404557926 0.6288192778
C -2.2313876693 1.0191296554 1.8196984832
O -1.4524982938 -0.1862053483 1.6796941167
C -0.1145769188 -0.0245513025 1.5987606589
N 0.6073954311 -1.1017741663 1.3113745038
N 1.8914899608 -0.6489175431 1.2864427500
C 1.9668635923 0.6833071845 1.5613381096
C 0.6827024271 1.1319044384 1.7734771751
C 2.9453329372 -1.5368574149 0.9893701559
C 4.1783783927 -1.0427521522 0.5568974691
C 5.2189592382 -1.9192448432 0.2774407358
C 5.0111134605 -3.2863736955 0.4145344836
C 3.7845451261 -3.7924211820 0.8266262902
C 2.7490673775 -2.9137848742 1.1185275574
Cl 6.3253884804 -4.3977838125 0.0510670025
O -3.5615281341 -0.4611425058 -0.3754715628
C -4.6938519321 -0.4147106441 -1.2685846127
H 1.5974664740 -0.3129744206 -2.2616225260
H 0.9741089290 -1.7346905697 -1.3638753979
H 0.4844787368 -1.4676270956 -3.0661173255
H -2.2268598616 2.0045433407 -2.7741479725
H -1.9199053351 4.4385786387 -2.3547413835
H -1.8013840013 5.2705063543 -0.0108836767
H -1.9295483285 3.6731438049 1.8690116967
H -3.2518860876 0.6587049874 1.9669749598
H -1.9171781669 1.5575195039 2.7220349672
H 2.9079181196 1.2090673905 1.6125256300
H 0.3807553013 2.1375124021 2.0155525667
H 4.3355939771 0.0201610060 0.4171462511
H 6.1756046149 -1.5368184603 -0.0592732485
H 3.6348468740 -4.8611696480 0.9283701680
H 1.7916479666 -3.2947465693 1.4500997487
H -4.4987545412 -1.0130236429 -2.1647607379
H -5.5194954943 -0.8461615163 -0.6987200530
H -4.9293005509 0.6201225996 -1.5425478241
