39
CONF8
C 3.1498810272 -2.6708163246 -1.1175698529
C 2.8010398916 -1.1848928080 -1.1131133595
C 2.9450514833 -0.5673340116 0.2759384986
C 2.5478104271 0.9081398629 0.3360185367
N 1.1395586228 1.1344790075 0.0049179033
C 0.1773288598 0.8222535921 0.9045902504
O 0.3518608537 0.4995337204 2.0597542049
N -1.1532771944 0.9761372261 0.3556602453
C -1.6832531243 2.1192930272 -0.2559061575
C -1.1002080852 3.2865098287 -0.7312453945
C -1.9610518472 4.2411295710 -1.2679219964
C -3.3454071781 4.0334588497 -1.3229192671
C -3.9219760654 2.8685565492 -0.8309831911
C -3.0791155695 1.9029575372 -0.2865236461
N -3.3944033857 0.6706163260 0.2644365157
C -2.2460755738 0.1709659885 0.6365374432
N -2.1302853022 -1.0581448795 1.2618463702
C -1.1381055688 -1.9777104951 1.0026072434
O -0.2032359473 -1.8158348452 0.2471765487
O -1.3717851306 -3.0969973092 1.7234537327
C -0.3818681147 -4.1302850124 1.5439753259
H 3.0565380772 -3.1017363293 -2.1187977748
H 2.4747118039 -3.2183130986 -0.4515737365
H 4.1761969107 -2.8382935901 -0.7725081912
H 1.7663028949 -1.0678557196 -1.4555585616
H 3.4436340226 -0.6467134577 -1.8241419407
H 2.3266217761 -1.1218046321 0.9906545056
H 3.9865614032 -0.6518748735 0.6140404570
H 3.1473608206 1.5011664350 -0.3645972502
H 2.7139592941 1.3041808986 1.3419648879
H 0.8716360370 1.1228696806 -0.9675717299
H -0.0323241804 3.4626770826 -0.6752358877
H -1.5461657040 5.1687149603 -1.6477283813
H -3.9788046052 4.8023547547 -1.7526986488
H -4.9935691832 2.7050494644 -0.8597158675
H -2.9671233757 -1.3873645881 1.7196016749
H 0.5999234871 -3.7715905024 1.8636469131
H -0.3352577904 -4.4376825591 0.4960713714
H -0.7126829626 -4.9558008399 2.1734185823
