24
CONF385
C 2.5325922166 0.9590045732 0.9160469373
C 1.3446414470 0.0102046403 1.0321637806
C 0.2932438357 0.2567353161 -0.0670818164
C -0.8635795606 -0.7332057880 0.0273274230
C -2.1027990791 -0.3247632673 -0.8116375413
C -1.7642832606 0.0741285297 -2.2278153606
O -2.1099741360 -0.6080055472 -3.1758693709
O -3.0173076686 -1.4101209939 -0.8024275177
O -0.3640852190 -1.9926168962 -0.4158773165
O 0.8954178921 0.1927971768 -1.3625045710
O 0.7413166595 0.0988697535 2.3283438769
O 2.1321430557 2.3309937426 1.0571771704
H 3.2766220988 0.6918374752 1.6763880450
H 2.9891722216 0.8539328686 -0.0722566203
H 1.7181306354 -1.0178442483 0.9420796202
H -0.0952869813 1.2769143183 0.0486559324
H -1.1991026357 -0.7972011607 1.0713125788
H -2.5516302622 0.5563289071 -0.3256748480
H -1.2317200124 1.0290612640 -2.3610572344
H -3.1267789100 -1.6807762192 -1.7308913321
H -1.1272819463 -2.5832547677 -0.4968050647
H 1.0504105235 -0.7457614806 -1.5492697061
H 0.4040615025 0.9999810941 2.4331151881
H 2.1760771020 2.5627604237 1.9922507583
