44
CONF8
C 4.3205241733 -0.4177005003 -0.0578355763
C 3.3785697183 -0.5497164242 -1.2058693043
N 2.1108921076 -0.9040640218 -0.9370638500
C 1.3046202815 -0.9900489990 -2.0016073448
N 1.6661600340 -0.7749237248 -3.2727022142
C 2.9487088489 -0.4438065655 -3.4136375328
N 3.8507531719 -0.3080274779 -2.4291127146
O 3.4364561348 -0.2110828784 -4.6272366470
C 2.5321008438 -0.3377894886 -5.7548093842
N -0.0177999731 -1.3309494516 -1.8233562949
C -0.7516682459 -1.5745683114 -0.6584402814
O -1.9306732421 -1.8852667087 -0.7289591441
N -0.0579518577 -1.4190646234 0.5162684345
S -0.7232021715 -1.8152971721 2.0304629574
O -1.2142097632 -3.1973125724 1.9974549762
O 0.3491884022 -1.4625266225 2.9732417029
C -2.1252249037 -0.7109002062 2.2395037040
C -3.3674956299 -1.3382106505 2.3470883616
C -4.4995167574 -0.5784990788 2.6013887477
C -4.3747737575 0.7989044990 2.7565949750
C -3.1320596617 1.4075554181 2.6382411356
C -1.9685042889 0.6790457970 2.3641351530
C -0.6540009509 1.4244685046 2.2619542589
C -0.6736527764 2.6286786344 1.3080364526
C -0.6839918504 2.2495994096 -0.1471266885
F 0.4437254122 1.5830323023 -0.5142453417
F -1.7291402797 1.4466429611 -0.4818909066
F -0.7617681915 3.3442165522 -0.9465297068
H 5.1691252926 -1.0940121552 -0.2002590286
H 4.7211035448 0.6005271939 -0.0299748556
H 3.8221004776 -0.6435464657 0.8846240252
H 2.1400079648 -1.3554035209 -5.8119783807
H 1.7115970082 0.3770243885 -5.6627691412
H 3.1438724015 -0.1112259116 -6.6267014090
H -0.5682881619 -1.3985836783 -2.6705218467
H 0.9492182388 -1.1872947853 0.4574328281
H -3.4392721605 -2.4126160664 2.2318353233
H -5.4668766923 -1.0617242954 2.6844779245
H -5.2487285545 1.4047177182 2.9730340587
H -3.0594084049 2.4819776691 2.7729471906
H 0.1715308411 0.7677227774 1.9905759353
H -0.4136753988 1.8111530802 3.2589156632
H -1.5349698484 3.2784196279 1.4796943483
H 0.2265976406 3.2304758129 1.4636632338
