52
CONF13
C -1.0839110587 4.0491802275 -3.0838216343
O -2.1026774138 3.2436330787 -2.4747107219
C -1.6942931833 2.2266098625 -1.6668543739
C -0.3582722816 1.9111217959 -1.4065722005
C -0.0473906315 0.8435914174 -0.5636132351
C -1.0652823282 0.0795028721 0.0083836587
C -2.4015652762 0.3948439053 -0.2483749637
C -2.7238414091 1.4753669771 -1.0811448101
O -4.0387194898 1.8084461743 -1.3059327197
C -4.5997867077 1.1361384446 -2.4533015626
O -3.4633169464 -0.2885455296 0.2619137401
C -3.1759326145 -1.3942136953 1.1295545505
C 1.4173025363 0.5401974346 -0.2683987350
C 1.9598835256 1.2882281148 0.9516006501
C 1.3796613756 0.7477721294 2.2476351949
C 1.7159795318 1.8697327671 3.2203101004
O 1.6215634295 3.0855369078 2.4015413441
C 1.7687011362 2.7796900339 1.0852141842
O 1.7818633298 3.6400719501 0.2362297499
C 1.9464138817 -0.6334195435 2.5091395301
C 1.8621080122 -1.4874820908 1.2503291757
C 2.0467014228 -2.8785981692 1.4129121154
C 2.0061227646 -3.6665825143 0.2910819365
C 1.8001832939 -3.1297599801 -0.9744371422
C 1.6267950981 -1.7819465243 -1.1627193145
C 1.6589027762 -0.9445538191 -0.0273595062
O 1.8104080498 -4.1237077509 -1.9158373951
C 2.0363103225 -5.3573830098 -1.1960833785
O 2.1571518626 -5.0264102276 0.2052714382
O 1.2456116823 -1.3144594216 3.5613511543
H -0.4472307796 3.4474279616 -3.7424919111
H -1.6150951677 4.7985861267 -3.6711574037
H -0.4678371889 4.5440550570 -2.3241068759
H 0.4446470071 2.4880286971 -1.8460712141
H -0.8099755348 -0.7693460426 0.6294905185
H -5.6337933039 1.4760836588 -2.5372890175
H -4.5774737675 0.0495523395 -2.3099465354
H -4.0472243575 1.4020483140 -3.3619169700
H -2.6080477758 -2.1707998456 0.6039469437
H -4.1460746988 -1.7899094938 1.4311867969
H -2.6197116990 -1.0643367518 2.0148275321
H 1.9971832671 0.8445390057 -1.1472938174
H 3.0546977735 1.1449430188 0.9710143880
H 0.2899043627 0.6694750675 2.1493918239
H 2.7431934509 1.7974741079 3.5970888340
H 1.0160636152 1.9871894344 4.0482127919
H 3.0097197913 -0.5335614666 2.7883558468
H 2.2086225946 -3.3026624657 2.3966514980
H 1.4613967383 -1.3639175481 -2.1505039251
H 1.1767884228 -6.0208025003 -1.3391089199
H 2.9704452456 -5.8119809351 -1.5425910741
H 1.5131277212 -0.9146883711 4.3990034533
