41
CONF8
C -6.0108668199 0.3991958880 2.3844446037
C -6.7775116537 0.9561173178 1.2048865031
O -5.8522503538 1.4916428091 0.2020876478
C -5.3344601260 0.6146997727 -0.6674596253
O -5.5772764873 -0.5714060408 -0.7000508226
C -4.4237219963 1.3392484235 -1.6603149096
C -5.2570319982 1.8853824575 -2.8107094867
O -3.4843871154 0.4266157268 -2.2276938885
C -2.5164479639 -0.0966214627 -1.4164811167
C -1.6569442714 -1.0133446168 -2.0328429617
C -0.6334799765 -1.6043152985 -1.3096392744
C -0.4808532070 -1.2658921378 0.0268268390
C -1.3174614454 -0.3674483522 0.6577990484
C -2.3493106701 0.2269152762 -0.0679512250
O 0.5147584712 -1.9136097083 0.7974508095
C 1.7511776979 -1.4699500993 0.6487819639
N 2.2075747800 -0.4806920309 -0.0493415164
C 3.5819853653 -0.5169281258 0.2103992064
C 3.8540920664 -1.5734609748 1.0862179573
O 2.6550705249 -2.1976920032 1.3722156416
C 5.1050948982 -1.9025170687 1.5575805600
C 6.1280136455 -1.0795433051 1.0841878060
C 5.9105139718 -0.0126512317 0.2091826665
C 4.6239731992 0.2829944504 -0.2412869172
Cl 7.7719880975 -1.4083629796 1.6201703221
H -5.3877872451 -0.4472361701 2.0838877884
H -5.3765318856 1.1693413599 2.8323219065
H -6.7206517806 0.0534447953 3.1423118612
H -7.4066957941 0.2002915502 0.7287175399
H -7.3868834252 1.8165228254 1.4870039346
H -3.9022048932 2.1580740909 -1.1489024872
H -4.6031614834 2.3917378607 -3.5246772163
H -5.9893825167 2.6020872251 -2.4320084490
H -5.7808571067 1.0700041478 -3.3170864446
H -1.8071707184 -1.2554998684 -3.0793468713
H 0.0375590695 -2.3185981254 -1.7746835014
H -1.1719649717 -0.1301595471 1.7060545283
H -2.9997639187 0.9301485222 0.4381408756
H 5.2846144878 -2.7271996914 2.2359596973
H 6.7508663798 0.5872911411 -0.1199278585
H 4.4498918036 1.1101218600 -0.9203434095
