54
CONF21
C 1.7751207796 0.8635310457 4.1585923506
C 1.4882036815 0.1387589086 2.8522968772
C 0.6456222595 0.9503009372 1.8982251748
O 0.2086037454 2.0594526874 2.1304377267
O 0.4539700760 0.2526655821 0.7625510439
C -0.3639888734 0.7405527385 -0.3596889513
C -1.8146413953 0.9449179881 0.1476099326
C -2.3148210512 -0.1774611353 1.0243266958
C -2.7273926769 -1.3999214200 0.4816205840
C -3.1590631931 -2.4366967216 1.3046917687
C -3.1908556797 -2.2697511117 2.6878323710
C -2.7994343421 -1.0523820082 3.2389434959
C -2.3673626832 -0.0171124972 2.4128085220
C -0.2631742742 -0.3748360856 -1.3987854876
C -1.1528871974 -0.4205275742 -2.4789389098
C -1.0398372416 -1.3992739196 -3.4616921242
C -0.0343500791 -2.3590519167 -3.3865550329
C 0.8559780606 -2.3245032987 -2.3182863576
C 0.7453559556 -1.3420992246 -1.3368700792
C 0.2560503124 2.0661278130 -0.8948805262
C -0.5413536930 2.7077397901 -2.0311785343
C 1.7163921799 1.8552845678 -1.3230003810
N 2.4519756489 3.1177974127 -1.4776528783
C 3.6967774204 2.8712885565 -2.2093509467
C 2.7666919723 3.7055215879 -0.1729754587
H 2.3175858721 1.7957709345 3.9794461147
H 2.3826720199 0.2318002854 4.8118381998
H 0.9586525252 -0.8060801604 3.0274451206
H 2.4137112938 -0.1309350273 2.3291599974
H -1.8527960084 1.8868337824 0.6999095002
H -2.4681509461 1.0523668306 -0.7204850762
H -2.7138811005 -1.5406327550 -0.5945100585
H -3.4767836560 -3.3765780528 0.8630404235
H -3.5282910257 -3.0781847721 3.3290399932
H -2.8329574759 -0.9046515551 4.3143141571
H -2.0698047774 0.9313234282 2.8502218305
H -1.9570593832 0.3012859705 -2.5627186312
H -1.7477024741 -1.4120757283 -4.2847591234
H 0.0506820841 -3.1260776139 -4.1498841097
H 1.6447094362 -3.0669265401 -2.2423424822
H 1.4500728664 -1.3345455711 -0.5153967496
H 0.2274535324 2.7492345799 -0.0434031604
H -0.5133456483 2.0958416270 -2.9379256735
H 1.7215431748 1.3412201928 -2.2925881282
H 2.2386156487 1.1930685509 -0.6058233278
H 3.4721478280 2.4699244467 -3.2030238798
H 4.3587807254 2.1523345621 -1.6877095129
H 4.2459792322 3.8107232360 -2.3318363898
H 3.3385642842 4.6278965045 -0.3162315799
H 1.8534404304 3.9580001554 0.3727481163
H 3.3657575462 3.0197433394 0.4591649657
H 0.8469419835 1.1081433161 4.6820676897
H -1.5855347937 2.8842261293 -1.7585692330
H -0.0892557273 3.6740195006 -2.2691848126
