41
CONF29
C 0.4129786843 -3.4353187917 0.4112966360
C -0.0419058874 -2.0254137058 0.5331597076
C -1.3191677603 -1.5333852504 0.5407660194
C -1.2458013457 -0.0983498190 0.5854023178
C 0.1151661647 0.2599796991 0.5892937967
N 0.8589642905 -0.9390887498 0.5435229906
C 2.2537042837 -1.0643432304 0.6129687806
O 2.7817340657 -2.0083898582 1.1835291736
C 3.0527962595 -0.0320721802 -0.0918782941
C 2.6434553941 0.4834035643 -1.3258017352
C 3.4512215875 1.3778121902 -2.0147984548
C 4.6597215342 1.7627770638 -1.4428369377
C 5.0901905514 1.2630231665 -0.2172649135
C 4.2840296159 0.3499215808 0.4479481536
Cl 5.6766596864 2.9095274051 -2.2972872244
C 0.5073588526 1.5887066026 0.7355123134
C -0.4852463554 2.5552111358 0.8038045799
C -1.8497062340 2.2106682508 0.7512019194
C -2.2461867591 0.8797692353 0.6531913875
O -2.7134422792 3.2678756373 0.8194676959
C -4.1146468069 2.9729106792 0.7809489198
C -2.5852609288 -2.3114338855 0.4691035271
C -3.2057228546 -2.3258557658 -0.9123918966
O -2.7029229851 -1.8841405680 -1.9230735347
O -4.4178765233 -2.9184684978 -0.8890968925
H 1.1779553270 -3.5377067286 -0.3644255073
H -0.4353605279 -4.0657536623 0.1387239019
H 0.8430656432 -3.8109356187 1.3439205139
H 1.6971988626 0.1760096691 -1.7585832987
H 3.1471679209 1.7696298434 -2.9784728480
H 6.0365620283 1.5793946005 0.2058007939
H 4.6021968822 -0.0606242894 1.4003436157
H 1.5469864311 1.8855048393 0.7946943211
H -0.2186121236 3.6018590771 0.9057647846
H -3.2900550609 0.5901801675 0.6435293682
H -4.4096422784 2.3492507177 1.6334558301
H -4.3850241758 2.4689780297 -0.1548060927
H -4.6225316680 3.9360572722 0.8388259196
H -3.3342247757 -1.9070409139 1.1614792252
H -2.4436237793 -3.3557125086 0.7685640775
H -4.7721532634 -2.9244159058 -1.7948621483
