36
CONF20
C 1.0922649447 3.5299316702 -0.0660991038
C 2.0353833590 2.7967530176 -1.0300079433
C 1.3896962296 1.5895569127 -1.6359106688
C 1.7990549701 0.3314303497 -1.4709028127
C 1.1227701087 -0.8729223185 -2.0440290254
C 0.5522036642 -1.8212103676 -0.9767949099
C -0.5906183312 -1.2731100507 -0.1056416829
C -1.4111913562 -2.5236406719 0.2728904505
C -1.3750839373 -3.3927609951 -0.9840441065
C -0.0305039979 -3.0831286746 -1.6255894977
O 0.4943112712 -3.7080798321 -2.5174222683
C -0.1224467263 -0.4699860426 1.0991535134
C -1.2432017843 0.2579702064 1.7984764930
O -2.3762597148 0.3758018224 1.3920917398
O -0.8034100013 0.8096638250 2.9552063230
C -1.7911451268 1.5773939594 3.6752066009
H 1.5613210477 4.4347714166 0.3319733968
H 0.8208266359 2.8875411523 0.7781434239
H 0.1669048095 3.8233640648 -0.5724468470
H 2.9523664424 2.5013856158 -0.5068670190
H 2.3353764245 3.4900705922 -1.8274848119
H 0.4949959458 1.7738012518 -2.2346155210
H 2.6881295816 0.1430328541 -0.8643238905
H 1.8252848977 -1.4541007120 -2.6551012636
H 0.3071273748 -0.5593596337 -2.7075616544
H 1.3736110531 -2.1693124704 -0.3274049717
H -1.2186197893 -0.6218773577 -0.7295055306
H -2.4201503768 -2.2649615677 0.6002884881
H -0.9119864540 -3.0459997200 1.1000540520
H -2.1465645445 -3.0795751977 -1.7018499670
H -1.4999018660 -4.4668365126 -0.8266536044
H 0.3954564617 -1.1081074387 1.8261079264
H 0.6034824951 0.2920105491 0.7910382380
H -1.2807537962 1.9474169812 4.5641791090
H -2.6391346958 0.9452565763 3.9511691115
H -2.1495949276 2.4078161431 3.0612018380
