82
CONF11
C -4.8587091626 2.3458808235 -3.0364125955
C -4.2675574974 2.1338659657 -1.6701914808
C -3.8868016511 3.1648917997 -0.9102059285
C -4.2273365576 0.6830769451 -1.2444516453
C -5.6465141866 0.2340087116 -0.7251355375
C -5.4041245754 -0.4062494491 0.6588558360
C -3.9597363935 -0.9145227578 0.5823634255
C -3.2722226869 0.2914594933 -0.1024162201
C -1.8045247371 0.0066446587 -0.4220338438
C -1.1037462930 1.1160139723 -1.2096034190
C 0.3621421238 0.7852385390 -1.5158967010
C 1.1584191492 0.3337166895 -0.2797874054
C 2.6988511905 0.1590576489 -0.5482058932
C 3.2546079028 1.5256280924 -1.0112636246
C 4.7801212945 1.5952359045 -0.9780564427
C 5.3245824836 1.2838014213 0.4068122866
C 4.9025083074 -0.1032139675 0.9297493021
C 3.3455018795 -0.1735179190 0.8324777158
C 2.7459539533 -1.4564857531 1.4106521135
C 1.2502835368 -1.2859390238 1.6788442282
C 0.4358779050 -0.8494839374 0.4429382154
C -1.0105618591 -0.3359685346 0.8820515000
C -1.7514456845 -1.4093002070 1.7292963582
C -3.2595231145 -1.1601636553 1.9183081523
C -0.9271638789 0.9171943575 1.7868592728
C 0.3185181020 -2.0859125233 -0.4779319394
C 5.6298940271 -1.2334477817 0.1857961253
C 5.3163477951 -0.1798240762 2.4133573320
O 6.7645403431 1.3635728874 0.4196706699
C 2.9995789937 -0.8752042674 -1.6527470749
C -3.9208032219 -2.1827099792 -0.2943034112
O -4.6973123917 -3.2621087052 0.2553634833
H -4.2260801105 1.8735500969 -3.7989569599
H -5.8433705415 1.8670571681 -3.1102919364
H -4.9659416422 3.4064762262 -3.2774460949
H -3.9981695190 4.1854039189 -1.2669998293
H -3.4483070470 3.0336800414 0.0736947354
H -3.9777632595 0.0931532796 -2.1378344236
H -6.3267294070 1.0880698942 -0.6596125252
H -6.0993005321 -0.4842354867 -1.4154365533
H -5.4699308336 0.3543010001 1.4467865247
H -6.1262878476 -1.1945203724 0.8913868373
H -3.3174144718 1.0999155922 0.6385600160
H -1.7900292378 -0.8812491603 -1.0659152624
H -1.6387908734 1.2795760462 -2.1531396551
H -1.1698284027 2.0651803299 -0.6669024773
H 0.8291700917 1.6708638422 -1.9583300823
H 0.3885387779 0.0107111876 -2.2902054159
H 1.1306223812 1.1695191986 0.4306781034
H 2.8492847092 2.3136925592 -0.3598855623
H 2.9124477709 1.7460127929 -2.0280375857
H 5.2264427839 0.9068386145 -1.7051237860
H 5.1037612514 2.6039029427 -1.2678675018
H 4.9176943978 2.0288592140 1.1139544761
H 3.0035572295 0.6428878117 1.4932332058
H 3.2336211902 -1.7117349424 2.3562798554
H 2.9272910811 -2.3046341561 0.7414388860
H 1.1472719517 -0.5463408953 2.4800597792
H 0.8400003720 -2.2267443729 2.0667801520
H -1.6193707803 -2.4048960840 1.2967546036
H -1.2816045814 -1.4522079060 2.7190226446
H -3.7005067423 -2.0115775505 2.4542626431
H -3.4290905122 -0.2853382522 2.5581404237
H -0.5826948987 1.8142802260 1.2721383778
H -0.2618654981 0.7476123938 2.6367162353
H -1.9090338187 1.1500941091 2.2052219671
H 0.0454429580 -1.8398335916 -1.5049425884
H -0.4242875513 -2.7942001691 -0.1031328829
H 1.2659698817 -2.6244650706 -0.5192419747
H 6.6913376269 -1.2283298020 0.4498436001
H 5.2177345637 -2.2044074388 0.4775555682
H 5.5570704974 -1.1497114769 -0.8994406647
H 4.7234926865 0.5116170959 3.0239541108
H 6.3716097586 0.0868619041 2.5176729240
H 5.1899751043 -1.1881299602 2.8169838894
H 7.0026037724 2.2510160670 0.1241931963
H 3.9423824965 -0.6547598136 -2.1579213641
H 3.0681468655 -1.8982013038 -1.2803003634
H 2.2211193948 -0.8538804547 -2.4194953938
H -4.3590375443 -1.9824862258 -1.2760841816
H -2.8916453490 -2.5209221485 -0.4585682959
H -4.2391560700 -3.5835621537 1.0410479472
