42
CONF5
C 3.2493732479 -2.0648297438 -0.5958805080
C 3.0079706793 -0.8867590871 0.2902440824
N 1.8054328042 -0.7725931830 0.8580597748
C 1.6478903677 0.3135897003 1.6380144554
N 2.5822523217 1.2318942175 1.8907116469
C 3.7406204370 0.9962424614 1.2747767044
N 4.0207144499 -0.0314277974 0.4644979114
O 4.6811051527 1.9067639004 1.5201005302
C 5.9614768271 1.7227981020 0.8815204894
N 0.4357568351 0.5341190722 2.2471977362
C -0.8069549526 -0.1259655809 2.1368497700
O -1.7830140885 0.3297580010 2.6976047933
N -0.7859827087 -1.2670102708 1.3754505953
S -2.2051211265 -2.0741895998 0.8755032875
O -1.7376754460 -2.8811046430 -0.2554345651
O -2.8362579254 -2.6991636692 2.0333986087
C -3.3056477650 -0.7845628121 0.2924461003
C -4.5793438185 -0.7343888432 0.8420592962
C -5.5184757639 0.1551303813 0.3347553202
C -5.1677550595 0.9868680155 -0.7211026814
C -3.8860967733 0.9591561463 -1.2633988569
C -2.9315655225 0.0805888188 -0.7486520390
O -1.6406065988 0.0205745777 -1.1663714892
C -1.2897161033 0.6898864912 -2.3758590150
C 0.1928078131 0.5168401623 -2.5854085084
Cl 1.1521545435 1.6161431082 -1.4991412488
H 3.9440324202 -2.7524088555 -0.1013741183
H 3.7267356378 -1.7400150455 -1.5238770329
H 2.3188828805 -2.5932340490 -0.8055693117
H 6.4157060849 0.7792217050 1.1935185319
H 6.5617666791 2.5685718263 1.2160556584
H 5.8537805146 1.7308841873 -0.2058407622
H 0.3856711850 1.3757278840 2.8046780249
H 0.0680816930 -1.4631939570 0.8378887946
H -4.8173011455 -1.4017388579 1.6619298576
H -6.5141940577 0.1934360653 0.7609210974
H -5.8952576909 1.6795800765 -1.1316828752
H -3.6405453566 1.6297747145 -2.0767152343
H -1.5402801283 1.7566841375 -2.3281112267
H -1.8298557751 0.2296569762 -3.2180693040
H 0.4986487677 -0.5089101849 -2.3664714163
H 0.4607878775 0.7776062664 -3.6111706789
