34
CONF2
C 4.2012980065 -0.8477898318 0.2724853506
C 2.9243513639 -0.9118935515 -0.5209392567
O 2.8607474302 -0.9897909332 -1.7257013532
O 1.8520217601 -0.8508120720 0.3068851404
C 0.5322139539 -0.8678831296 -0.3004961311
C -0.4511262114 -1.6423814740 0.6094152294
C -1.5796798158 -0.6199464021 0.8511564039
C -1.0320241808 0.4239827881 1.8430412666
C 0.0099657797 1.1982074709 0.9858478250
C -0.0890750281 0.5438685502 -0.4136098531
C -1.6107638437 0.1685300189 -0.4890205534
C -2.0009854496 -0.6849333164 -1.7008975042
C -2.5423084420 1.3830911355 -0.4744957744
C 0.4823873683 1.3880381040 -1.5343001579
H 4.3921322777 0.1954675802 0.5453714207
H 4.1214728812 -1.4234425020 1.1965931277
H 5.0268042305 -1.2072286116 -0.3410177983
H 0.6423894090 -1.3180484966 -1.2888264630
H 0.0369811930 -1.9399628050 1.5415657995
H -0.8084151076 -2.5527057058 0.1204545836
H -2.5317369020 -1.0688248071 1.1501319544
H -1.8248029677 1.0824737626 2.2095906201
H -0.5812503652 -0.0547591869 2.7174183418
H 1.0240883494 1.1213714355 1.3842751768
H -0.2271351080 2.2641849268 0.9185057710
H -1.8675142871 -0.1160516492 -2.6272190604
H -1.4299876326 -1.6096650890 -1.7956610503
H -3.0601305027 -0.9574718668 -1.6355473810
H -3.5774474821 1.0566999678 -0.3239808567
H -2.5008817758 1.9051375969 -1.4362931725
H -2.3038219398 2.1064853547 0.3061353838
H -0.0385768427 2.3493127246 -1.5996850801
H 0.4074863318 0.8802272074 -2.5009087278
H 1.5433239356 1.5965130022 -1.3609275199
