49
CONF48
C -4.2733154678 0.3069235083 0.5082975810
C -3.7079012809 0.4311784920 1.9072742249
C -2.2003966706 0.6963338775 2.1114067253
C -2.8525230623 -0.6562036066 2.4843598855
C -2.9021667601 -0.9588181081 3.9696780423
C -2.5320147757 -1.8957296051 1.6764520989
C -1.2608390820 0.8321359791 1.0022327645
O -1.2620114665 0.2831350824 -0.0806810502
O -0.2729139138 1.7372489026 1.3482713260
C 0.7578199187 1.9023540223 0.3490716479
C 1.3830850886 3.1927323140 0.6409093769
N 1.9107825966 4.2008537406 0.8382199636
C 1.7815508159 0.7848033545 0.3955064225
C 2.3671914866 0.4295969395 1.6103996393
C 3.2897916193 -0.6114975755 1.6400397475
C 3.6428300116 -1.2793129732 0.4720265542
C 3.0556265422 -0.9042649101 -0.7342585659
C 2.1159471234 0.1238722477 -0.7825287343
O 3.3966257010 -1.6483977945 -1.8422532690
C 3.3146720927 -1.0622008989 -3.0999101433
C 3.9449587509 0.1499404227 -3.3695359509
C 3.8975451990 0.6589897875 -4.6638165141
C 3.2384568738 -0.0392961991 -5.6751752599
C 2.6226851028 -1.2552671418 -5.3877872857
C 2.6542551222 -1.7729702524 -4.0945034096
C -4.6274852714 1.2345180779 2.8078991251
H -4.4543062550 1.3040910464 0.0923782220
H -5.2369923058 -0.2128328621 0.5596176171
H -3.6250396847 -0.2313770633 -0.1796058641
H -1.9601424411 1.3303122384 2.9584405594
H -3.0184340268 -0.0670950526 4.5863256439
H -3.7387237014 -1.6350008149 4.1813855436
H -1.9783349649 -1.4617251245 4.2746599289
H -2.4330253379 -1.7089108014 0.6092513132
H -3.3263814964 -2.6354222072 1.8287681468
H -1.5936539985 -2.3356177012 2.0316512382
H 0.3074519615 1.9589751235 -0.6489656258
H 2.1002654277 0.9562263003 2.5209093617
H 3.7493799219 -0.9008036971 2.5794542979
H 4.3649090723 -2.0887928129 0.4825893402
H 1.6412657816 0.3956949687 -1.7192582409
H 4.4629011088 0.6817146339 -2.5778961049
H 4.3875348754 1.6024101172 -4.8831492032
H 3.2084101006 0.3620214194 -6.6827398121
H 2.1094066339 -1.8053039067 -6.1701918736
H 2.1770731222 -2.7164956997 -3.8512343448
H -4.1899504542 1.4516811354 3.7829124432
H -5.5643410708 0.6872173347 2.9643481497
H -4.8715289646 2.1883755466 2.3284233125
