43
CONF13
C 0.9135010236 0.0491734298 2.2299290081
C 2.3762647644 0.4273716791 2.3145097346
O 3.0620794581 0.0606955555 1.0726839139
C 3.5001456503 -1.1952781869 0.9678790417
O 3.4694715768 -2.0303928198 1.8491726056
C 4.1272589318 -1.4720786086 -0.3997357995
C 5.6125617005 -1.1464569071 -0.3576050922
O 3.5551221579 -0.6717062544 -1.4392316076
C 2.2124356174 -0.7979838816 -1.6796571028
C 1.6597847317 0.1735647510 -2.5197634911
C 0.3037091610 0.1521639073 -2.8107981279
C -0.4904196468 -0.8420848733 -2.2553212759
C 0.0433998798 -1.8213546995 -1.4375887736
C 1.4064026682 -1.8062207052 -1.1459880978
O -1.8580921764 -0.8866582524 -2.5761779099
C -2.7130322060 -0.2165544018 -1.7636185733
C -4.0905648453 -0.3067751059 -2.1340533741
N -5.0225638133 0.2902516812 -1.4405363642
C -4.6224808276 1.0058994108 -0.3443181097
C -5.5935259096 1.6678747516 0.4331964302
C -5.1801470248 2.3840695859 1.5307879389
C -3.8256475528 2.4767366184 1.9013856908
C -2.8711634208 1.8326749074 1.1471656645
C -3.2456429351 1.0856775008 0.0119256859
N -2.2896654844 0.4521068403 -0.7287262749
Cl -6.3730871046 3.2187816439 2.5148368260
H 0.3999185361 0.3958989547 3.1321218349
H 0.7895624029 -1.0347423404 2.1562109412
H 0.4425835876 0.5198999134 1.3618171017
H 2.8821643469 -0.0577816152 3.1523889030
H 2.5118863499 1.5082425829 2.3800527061
H 3.9831334091 -2.5386339592 -0.6115576601
H 5.7635258377 -0.0848430254 -0.1443501255
H 6.0983376302 -1.7418302788 0.4192481165
H 6.0650889921 -1.3892990382 -1.3220290765
H 2.3026260061 0.9454690796 -2.9295117016
H -0.1396170485 0.9069714961 -3.4518230747
H -0.5986606970 -2.5902405141 -1.0206802800
H 1.8081831501 -2.5809940840 -0.5042317679
H -4.3730051994 -0.8847541057 -3.0120617689
H -6.6379855078 1.5992578705 0.1509533456
H -3.5427236530 3.0529507092 2.7749268810
H -1.8211221040 1.8909307036 1.4143888690
