37
CONF18
C 4.5232424339 -1.5943246693 -0.7327430963
C 4.3895669867 -1.9888906392 0.7243621229
C 4.7147008964 -3.4486769769 0.9847747717
O 2.9874383075 -1.7407134870 1.0731736364
C 2.7246641272 -1.5191703928 2.3808191939
O 3.5586615352 -1.5286739229 3.2563083350
C 1.2758338651 -1.2237898007 2.5816054855
C 0.5969369921 -1.5200256744 3.7737919113
C -0.7357315236 -1.1627771860 3.9416233380
C -1.3867280448 -0.5063079834 2.9141542689
C -0.7724819825 -0.2136115944 1.6974016647
C 0.5634253482 -0.5856676652 1.5631223134
C -1.4666162136 0.4829703600 0.6130460786
N -0.8995093804 1.5461071550 0.0271054345
N -1.7327019185 1.9244272476 -0.9450060106
C -2.8439129227 1.1374814726 -1.0080713103
C -2.6969472416 0.1832389240 -0.0112400672
Br -3.7896915269 -1.2969397757 0.3529824698
C -3.9009429248 1.3695790105 -2.0316216118
F -3.4385660816 1.1373712368 -3.2901403626
F -4.3264900886 2.6612837134 -2.0170159332
F -4.9679300933 0.5866783074 -1.8393559778
C -1.4253041043 3.1178718894 -1.7232008434
F -2.6531037299 -0.1114079062 3.1232959272
Cl 1.3494067663 -2.3893519450 5.0810417901
H 4.2591279952 -0.5436129465 -0.8789740040
H 5.5567153459 -1.7404476134 -1.0598502503
H 3.8719780126 -2.2108472423 -1.3597305970
H 5.0043601198 -1.3463138075 1.3631364465
H 4.0687879539 -4.0945065419 0.3817435706
H 4.5827994088 -3.6932973504 2.0410211583
H 5.7555903958 -3.6485381398 0.7126055117
H -1.2626941688 -1.3810838931 4.8619436616
H 1.0703743280 -0.3624333018 0.6327245306
H -1.6479053500 2.9451452225 -2.7781324891
H -0.3611315554 3.3157733601 -1.5956221397
H -2.0058472760 3.9721060139 -1.3628707338
