21
CONF1
C -4.3179464643 -0.6379570313 0.0000714299
C -4.2966132133 0.7691573086 0.0000010249
C -3.1021973399 1.4784429522 -0.0000609538
C -1.9103221716 0.7483168690 -0.0000570333
C -1.9514358347 -0.6691365613 -0.0000148504
C -3.1448696411 -1.3848114374 0.0000608696
N -0.6322500583 -1.0592892785 -0.0000920510
C 0.1282705682 0.0833986153 -0.0000848519
N -0.5994686909 1.1883210966 -0.0000360341
C 1.5764205601 0.0239467386 -0.0000671793
C 2.4156558132 1.1108002389 0.0000804959
S 4.0530629852 0.5819221674 -0.0000235216
C 3.4926341075 -1.0716406606 0.0001047878
N 2.1990597111 -1.2072317470 -0.0000784380
H -5.2734506312 -1.1526396518 0.0001251966
H -5.2380268752 1.3094023308 0.0000138856
H -3.0863809285 2.5636349104 -0.0000871522
H -3.1609790812 -2.4695888839 0.0001011433
H -0.2670660553 -1.9998462702 -0.0001171748
H 2.1504482458 2.1585201153 0.0001826460
H 4.1973109770 -1.8961056816 0.0001158328
