40
CONF32
C -2.6223559556 3.1320903446 -1.3208199277
C -2.9936921359 1.9858079598 -0.4113210467
O -2.1156755081 0.8669059198 -0.7438491850
P -2.5478542680 -0.6303961410 -0.3481133329
S -4.2647555792 -1.2989919057 -0.9355627536
O -1.2212795213 -1.3460237617 -0.9072816539
C -1.2481835942 -2.7152410518 -1.4215764191
C -1.4094716681 -3.7512570251 -0.3316500772
S -2.5016651371 -0.7334644201 1.7697624068
C -0.9501744519 0.2327138976 2.2997099260
C -0.5815779096 -0.3555216712 3.6530323937
Cl 0.7671501292 0.6123494322 4.3943265221
N 0.1181658661 0.2198399725 1.3490152541
C 0.4776816812 1.3787999965 0.6196958626
O -0.0082576060 2.4757504455 0.7725826561
C 1.5514524302 0.9450651514 -0.3036044316
C 2.2469396351 1.6679008250 -1.2555184152
C 3.2193119182 0.9872423020 -1.9910615653
C 3.4795184324 -0.3664853864 -1.7652186045
C 2.7754736137 -1.0854151340 -0.7966781259
C 1.8101530620 -0.4038047240 -0.0791616963
C 0.9070591019 -0.8913877973 0.9922711786
O 0.8459047652 -1.9928752859 1.4911887708
H -2.7839701697 2.8614010361 -2.3674379436
H -3.2482172108 3.9978571582 -1.0836991731
H -1.5758926653 3.4096701486 -1.1755283887
H -4.0337470952 1.6714655105 -0.5548380896
H -2.8343371559 2.2402657081 0.6419890639
H -0.2825598646 -2.8091110124 -1.9259265036
H -2.0496278015 -2.7824746592 -2.1643808044
H -1.3327132527 -4.7463661057 -0.7825804665
H -2.3900962393 -3.6699702381 0.1443364457
H -0.6329643964 -3.6474963733 0.4290299014
H -1.4356818883 -0.2923234459 4.3304568956
H -0.2387000608 -1.3854962434 3.5626417913
H 2.0385815640 2.7195803629 -1.4191942673
H 3.7848241212 1.5168906035 -2.7505544733
H 4.2437693219 -0.8648608380 -2.3524937324
H 2.9722294218 -2.1353943839 -0.6080915398
H -1.2502493215 1.2791804405 2.4049494215
