35
CONF114
C -1.7782895479 2.0120688773 0.3677053586
C -1.8118300222 0.5251574710 0.2077225509
C -2.9280634159 -0.1964488315 -0.1019853774
S -2.6079315447 -1.9054088390 -0.1511054567
C -0.9360830057 -1.6750026938 0.2605042752
C -0.6739353608 -0.3331653765 0.4041466779
N 0.6195595156 0.1754624082 0.7253614493
C 1.6788702081 0.3602454680 -0.3164872725
C 2.8165345914 -0.6476459111 -0.1410023165
C 1.1082421525 0.2493957362 -1.7162180933
O 0.2795856152 1.3708123316 -1.9861385907
C -0.5499401167 1.1608943403 -3.1245360673
C 0.9233999869 0.5519441939 1.9998050687
O 1.9736862410 1.1109433939 2.3013134660
C -0.1290285578 0.1440698142 3.0361261722
Cl 0.2249554960 0.8587102333 4.6582014570
C -0.0048171991 -2.8293281076 0.4043033722
H -2.7259909323 2.4524339761 0.0493264113
H -0.9686721380 2.4408210282 -0.2279019963
H -1.6116193752 2.2996721849 1.4130417617
H -3.9254529475 0.1738923417 -0.2996815334
H 2.0698774347 1.3750293334 -0.1809946302
H 3.1425774131 -0.6888501494 0.8996703230
H 2.5056603249 -1.6484944670 -0.4540218135
H 3.6691265275 -0.3446119485 -0.7558403225
H 1.9492618684 0.2125842226 -2.4265559277
H 0.5375633536 -0.6866186614 -1.8242453288
H -1.1525918961 2.0626400940 -3.2562303174
H -1.2153288929 0.2985628631 -2.9687166833
H 0.0500567736 0.9901875199 -4.0305552264
H -0.1222131822 -0.9440832891 3.1483881550
H -1.1353213076 0.4570490925 2.7578191694
H 0.4324220094 -3.1141782211 -0.5599406056
H 0.8139980438 -2.5636039021 1.0790260067
H -0.5182681080 -3.7051362193 0.8096963974
