37
CONF14
C 3.1444642272 -3.7522281558 1.3913603051
C 4.0118483472 -2.6523857275 0.8170759249
C 5.2248040543 -2.3307998514 1.6690619382
O 3.1468442811 -1.4582251532 0.7537393553
C 3.4497384018 -0.5294682563 -0.1644285201
O 4.3935952670 -0.5878869344 -0.9265538121
C 2.4406296067 0.5705440747 -0.1557111498
C 2.7715506278 1.9117345911 -0.3926852317
C 1.7919095272 2.8947774998 -0.4471933239
C 0.4732346346 2.5208335549 -0.2672701072
C 0.0847901036 1.2090666954 -0.0004821982
C 1.0961279421 0.2513055822 0.0509337870
C -1.3176878724 0.8334102190 0.1905139241
N -1.8553827092 -0.1665902281 -0.5230329963
N -3.1119746728 -0.3005421234 -0.0939557193
C -3.4175784988 0.5960747478 0.8833850519
C -2.2677151715 1.3456271605 1.0958568596
Br -1.9430282964 2.6595237521 2.3984025220
C -4.7663702708 0.6347509051 1.5152433000
F -5.7491793760 0.7450739404 0.5847670987
F -4.8915871210 1.6701298354 2.3594281459
F -5.0306078764 -0.4976894760 2.2185129065
C -3.9953963843 -1.2671070195 -0.7420379592
F -0.4712386960 3.4712858419 -0.3878768981
Cl 4.4293042613 2.4352371321 -0.5676614794
H 3.7257278588 -4.6771216285 1.4459259840
H 2.8107083444 -3.4925301243 2.4007815960
H 2.2691849945 -3.9286932968 0.7604575766
H 4.3125000918 -2.8878132064 -0.2082301150
H 4.9150310071 -2.0636537614 2.6843067185
H 5.7993491232 -1.5063342289 1.2398840245
H 5.8719476169 -3.2113062487 1.7242808692
H 2.0401950421 3.9326086014 -0.6339578063
H 0.8263102904 -0.7791486009 0.2504506439
H -4.6196440603 -0.7676415082 -1.4879970599
H -4.6259999823 -1.7521745135 0.0047832827
H -3.3626938382 -2.0110574944 -1.2254670973
