40
CONF37
C 5.1499231834 -0.1452174288 3.5159040451
O 4.6760759501 1.1416956486 3.0616140826
C 3.4062781846 1.1530195614 2.6143867078
O 2.6692317511 0.1932081719 2.6331893107
C 3.0356545515 2.5207999659 2.0891915665
S 3.7905802042 2.8842228241 0.4548369901
C 2.6714229387 2.1011158301 -0.6874621184
C 1.6662861886 1.2052041622 -0.3215220009
C 0.7968125919 0.6509768810 -1.2668908536
C 0.9940282325 0.9906207586 -2.6094871794
C 1.9958816733 1.8527225322 -3.0109649092
C 2.8266576192 2.4056183338 -2.0470730667
Cl 4.0939460722 3.4982959680 -2.5609002371
F 0.1970785744 0.4411557731 -3.5506207980
N -0.1597270343 -0.2868061190 -0.8808929569
C -1.4015471621 -0.0164639120 -0.9693245581
N -2.3776056626 -0.9388868128 -0.6289288488
N -3.6684181112 -0.5475279652 -1.0453372821
C -3.8096967696 0.7777114112 -1.3694631863
O -4.8516908105 1.3617491267 -1.5484185040
S -2.1553553318 1.5241951445 -1.4829813625
C -4.7591428644 -1.2704868293 -0.3838101017
C -4.5758839921 -2.7666538396 -0.6117579810
C -3.1793521610 -3.1993782330 -0.1639543466
C -2.1098186924 -2.3688234146 -0.8633876211
H 5.1024581426 -0.8718485823 2.7009577854
H 4.5422312369 -0.4997797733 4.3521857039
H 6.1806581744 0.0197155808 3.8275574989
H 3.4418256740 3.2920755894 2.7495619732
H 1.9495923108 2.6197669159 2.0367344288
H 1.5439712042 0.8850127807 0.7061584032
H 2.1211358646 2.0881396977 -4.0607639869
H -4.7485314331 -1.0379183819 0.6919812177
H -5.6877391835 -0.8935111553 -0.8163066356
H -5.3475759275 -3.3094808744 -0.0566939348
H -4.7135689247 -2.9892286392 -1.6768938717
H -3.0793598326 -3.0744939906 0.9212229661
H -3.0100176553 -4.2565743702 -0.3916544079
H -2.1032391020 -2.5664169534 -1.9467029056
H -1.1134608633 -2.5675254994 -0.4665840315
