51
CONF118
C -0.9557798550 -0.3566721693 2.6663429978
C -1.4801259367 0.7251154278 1.7682677038
C -2.7239417704 0.6800499906 1.2676920797
C -3.3212274706 1.7237532628 0.4010683246
C -3.0815557319 1.7416508705 -1.1381834577
C -4.4523559802 1.4530524845 -0.5392995964
C -5.0621127378 0.0724886008 -0.6270101634
C -5.4637059240 2.5653387113 -0.7321118390
C -2.1870230937 0.7245662378 -1.7071932807
O -2.2078436047 -0.4767381149 -1.5100164770
O -1.2495395043 1.3250278124 -2.4907864553
C -0.1804753237 0.4602898863 -2.9975302503
C 0.8563923224 0.2167939811 -1.9575597767
C 0.9068541824 -0.8300776209 -0.9752449337
C 2.0209831145 -0.6164273814 -0.2254586639
O 2.6761437670 0.5041556790 -0.6841277559
C 1.9532729767 0.9927561673 -1.7346589822
C 2.6511012764 -1.3289622466 0.9161344336
C 4.0267988233 -1.8662699068 0.5730890291
C 4.1617376193 -2.9218934030 -0.3335287440
C 5.4206394392 -3.4098173907 -0.6698472362
C 6.5644117552 -2.8442816488 -0.1059209022
C 6.4383760301 -1.7909292575 0.7957835719
C 5.1752726601 -1.3053115390 1.1326248938
C -0.5052319367 1.8212577540 1.4538549643
H -1.7084844767 -1.1252897537 2.8608254839
H -0.6225741559 0.0599673874 3.6253153967
H -0.0776540265 -0.8343704742 2.2121484396
H -3.3515331619 -0.1722269070 1.5222509271
H -3.2900647101 2.7343568559 0.8055207699
H -2.9447777681 2.7316250947 -1.5604335855
H -4.3302214284 -0.7202481952 -0.4820209884
H -5.8466029209 -0.0235506772 0.1324177153
H -5.5270071767 -0.0671300828 -1.6091277354
H -6.2427213310 2.4982102617 0.0356264308
H -4.9939628012 3.5505092809 -0.6589550294
H -5.9440864925 2.4822939079 -1.7132900547
H 0.2329243504 1.0228408301 -3.8359818997
H -0.6171590500 -0.4739112685 -3.3577416342
H 0.1954205449 -1.6311572200 -0.8439135936
H 2.3437680260 1.8782850092 -2.2137709468
H 1.9836770382 -2.1501883163 1.1968431716
H 2.7252752734 -0.6570440372 1.7799802525
H 3.2719894337 -3.3620288662 -0.7770659277
H 5.5107467082 -4.2335302619 -1.3716742506
H 7.5469149636 -3.2244401356 -0.3680139695
H 7.3233386980 -1.3451057274 1.2398704298
H 5.0800966224 -0.4834054225 1.8372429271
H -0.1702896909 2.3157939278 2.3743588383
H -0.9196182555 2.5751871299 0.7814425013
H 0.3915407069 1.3956411715 0.9834720421
