47
CONF63
C 3.9761459822 0.2741475346 4.5371209598
C 4.0111267203 0.9395935778 3.1553652439
C 3.6441025850 2.4264339306 3.2553851991
C 3.1168014176 0.2190472004 2.1675703432
C 1.7371017581 0.1170627911 2.3843648045
C 0.9105891382 -0.5305841321 1.4733907627
C 1.4775298397 -1.0854811758 0.3352340540
C 2.8387352980 -1.0156464283 0.0880353646
C 3.6486501350 -0.3574447497 1.0122205816
O 0.6279033599 -1.7630619561 -0.5641531335
P 0.2811515049 -1.0715166641 -1.9714268780
O 1.3433861490 -0.9961713275 -2.9925603437
O -0.3263994944 0.3376285766 -1.4831989189
C -0.1002549281 1.5348911019 -2.1772026521
C 0.6037891581 2.5298777392 -1.5147317338
C 0.7952801956 3.7512586324 -2.1556524295
C 0.2910441883 3.9595339302 -3.4378887736
C -0.4107612309 2.9433418365 -4.0827222319
C -0.6157232203 1.7181470889 -3.4525161204
O -0.9553032943 -1.9608228293 -2.4622493708
C -2.1215569746 -2.1054118217 -1.6842200348
C -3.1497218419 -1.1873119725 -1.8408585673
C -4.3212639775 -1.3701880034 -1.1099663853
C -4.4492834470 -2.4552902654 -0.2454989884
C -3.4033488280 -3.3661554632 -0.1109653715
C -2.2249920164 -3.1964155050 -0.8336321652
H 4.6761941527 0.7725475891 5.2157197525
H 4.2508065558 -0.7833264932 4.4725110057
H 2.9756012905 0.3407743067 4.9781117729
H 4.3375773799 2.9449716793 3.9256693538
H 3.6853000914 2.9093439827 2.2739084843
H 2.6317266308 2.5519036492 3.6547762447
H 1.2932210514 0.5532706661 3.2742812695
H -0.1603486000 -0.6032261162 1.6318038070
H 3.2554495848 -1.4650901731 -0.8068392917
H 4.7172855134 -0.2943015123 0.8267382656
H 0.9910901415 2.3415672809 -0.5185420073
H 1.3437999653 4.5391890617 -1.6496637508
H 0.4451292645 4.9119399370 -3.9341347422
H -0.8051175632 3.1006619681 -5.0814467329
H -1.1630439539 0.9185326303 -3.9412464291
H -5.1351758002 -0.6610200890 -1.2208850440
H -5.3647848291 -2.5931793208 0.3202233589
H -3.5010163063 -4.2151734371 0.5578665296
H -1.3994418965 -3.8939420112 -0.7458555318
H 5.0364777055 0.8695000835 2.7716794493
H -3.0311117516 -0.3510279301 -2.5212256940
