54
CONF119
C 2.2647021527 -1.1904321858 2.9019270075
C 1.8881659351 0.2819181060 3.0666865370
C 1.9434639999 1.0048903775 1.7446520747
C 2.0108785061 0.2890101640 0.5421300256
C 2.1167654404 0.9470725553 -0.6847133911
C 2.1392471718 2.3339942204 -0.7362334333
C 2.0375467257 3.0306579821 0.4556184185
C 1.9483201753 2.4019419183 1.6822035730
F 2.0258643388 4.3955325658 0.4162925086
O 1.9921736801 -1.0824525555 0.4960111726
C 1.5258581299 -1.7433706913 1.6972321213
C 1.7258388629 -3.2398719628 1.4461933442
C 0.9388526493 -3.7438261573 0.2335935892
N -0.5021741577 -3.5708513295 0.4431267321
C -1.3223836485 -3.7468886377 -0.7579048336
C -1.1778652634 -2.6067081664 -1.7688916442
C -1.1235706868 -1.2287953058 -1.1203110079
C -2.3089371440 -0.8292952864 -0.2633550186
C -2.0116932642 0.5380983642 0.3502521087
C -1.5330424966 1.4994235371 -0.7057371347
C -1.0726231118 1.0265012165 -1.9426342291
O -0.9850634794 -0.3077634281 -2.2394813917
C -0.6826884727 1.9112243714 -2.9503579002
C -0.7095005649 3.2823969827 -2.7300015767
C -1.1311320469 3.7342635150 -1.4907040706
C -1.5488705306 2.8797061336 -0.4896893075
F -1.1433383395 5.0790800767 -1.2516081007
O -2.2978887095 -2.7362148651 -2.6552593067
O 1.3938999288 -3.9830649557 2.6270518864
H 1.9957749019 -1.7572175493 3.7963444843
H 3.3440770712 -1.3042631253 2.7395352863
H 0.8724135988 0.3543513122 3.4778225898
H 2.5518865493 0.7777481895 3.7828005121
H 2.1677866250 0.3602020770 -1.5962167807
H 2.2038221803 2.8628467861 -1.6800728362
H 1.8917745637 2.9911117082 2.5928582180
H 0.4473479026 -1.5395168872 1.7993694815
H 2.7928648674 -3.4251571014 1.2712145837
H 1.2525056380 -3.1641955830 -0.6407675030
H 1.2201957642 -4.7946582403 0.0458555440
H -2.3724260969 -3.7716092202 -0.4427551230
H -1.1189116836 -4.6933917562 -1.2900407361
H -0.2473276888 -2.7262443727 -2.3456624413
H -3.2130626184 -0.7924375339 -0.8815365826
H -2.4590619054 -1.5741409848 0.5223397194
H -2.8963155352 0.9492580450 0.8476547836
H -1.2362895886 0.4279573333 1.1222502277
H -0.3421358520 1.5116940504 -3.9002382859
H -0.3984978351 3.9840095351 -3.4962815028
H -1.8929753462 3.2811566295 0.4591457790
H 0.5063151175 -3.7232263199 2.9097773496
H -0.2046651021 -1.1642100843 -0.5241178080
H -2.1906533589 -2.0696914323 -3.3466492239
H -0.8128493349 -4.2584260656 1.1213453644
