37
CONF1
C -3.0281744981 -1.7433887423 2.0790533861
N -2.1137240245 -1.4301511221 0.9918082829
C -1.9947877962 -0.1827762978 0.5091667722
O -2.6369445671 0.7816064369 0.9405234011
C -1.0170362052 0.0064259245 -0.6252459573
N -0.7155067201 -1.0499706368 -1.2951056592
O 0.1871798393 -0.8212719951 -2.3101235754
C 0.5066544906 -2.0709546012 -2.9559814430
C -0.5458384320 1.3783053458 -0.9096197464
C -0.8267046946 1.9882350358 -2.1356586739
C -0.4425781599 3.3016101307 -2.3832160876
C 0.2377929930 4.0221254232 -1.4040636586
C 0.5423441958 3.4274389835 -0.1833480333
C 0.1514480752 2.1162923493 0.0556084560
O 0.4195321050 1.5851912439 1.3047674735
C 1.1268901441 0.3955397507 1.3830879130
C 2.0698744000 0.0228383056 0.4282444126
C 2.7518006112 -1.1803977357 0.5909331541
C 2.5091379153 -1.9917194774 1.6973005251
C 1.5779786373 -1.5893945775 2.6544429793
C 0.8812964422 -0.3954996054 2.5023043975
H -4.0601580998 -1.5007652420 1.8046109055
H -2.9567606288 -2.8100902210 2.2948862176
H -2.7699808255 -1.1772456831 2.9811322985
H -1.5263879624 -2.1549776576 0.6088311759
H 1.2222013008 -1.8108851417 -3.7373375950
H -0.3912177608 -2.5138634476 -3.3971167619
H 0.9623551575 -2.7627585751 -2.2408160463
H -1.3724341150 1.4278065401 -2.8875317029
H -0.6792741283 3.7622183949 -3.3364586912
H 0.5408063041 5.0473501456 -1.5907520209
H 1.0824614027 3.9653212721 0.5887480163
H 2.2574934158 0.6538689571 -0.4337088237
H 3.4816068901 -1.4798113234 -0.1550862739
H 3.0440190050 -2.9282358654 1.8151948080
H 1.3834238281 -2.2125062597 3.5218463019
H 0.1412111580 -0.0755105238 3.2286798682
