51
CONF66
C -1.3804755312 -2.6152907413 1.1237646231
C -1.4798973388 -1.1172272684 1.1397711923
C -2.5352399156 -0.4835606348 0.6033271380
C -2.7472374945 0.9784798880 0.6244483342
C -2.4562261946 1.8739914861 -0.6236004890
C -3.8707999868 1.6509547752 -0.1001640169
C -4.8699753282 0.8468898002 -0.8997418579
C -4.4829571652 2.8636957401 0.5715917167
C -1.9033704522 1.2234180596 -1.8153441694
O -2.2318839631 0.1495924619 -2.2877120964
O -0.8870833306 1.9768239607 -2.3258536016
C -0.0976178196 1.3565595608 -3.3862210946
C 1.0203202222 0.5710183787 -2.7962611692
C 0.9329871452 -0.5184200366 -1.8628295536
C 2.2068764775 -0.9118607442 -1.5960557866
O 3.0890674125 -0.1383308078 -2.3133593846
C 2.3471954986 0.7632898851 -3.0260892983
C 2.7917566071 -1.9425505477 -0.7057540288
C 3.6543043756 -1.3928225831 0.4166917205
C 4.6420547374 -2.2007568337 0.9863586638
C 5.4137121093 -1.7387644366 2.0494800364
C 5.2106686697 -0.4565725920 2.5565081129
C 4.2329123997 0.3580035979 1.9899832235
C 3.4614279698 -0.1070267726 0.9271453781
C -0.3175677173 -0.4150527046 1.7781289226
H -0.4875206612 -2.9338173037 0.5694919305
H -2.2589064382 -3.0778204031 0.6663801380
H -1.2680115164 -3.0067644672 2.1430010734
H -3.3081130694 -1.0891448825 0.1363197951
H -2.4266842311 1.4794490105 1.5348211191
H -2.0138141883 2.8382170462 -0.3978382950
H -5.3443398861 1.4907932966 -1.6483459355
H -4.4171662902 0.0029893859 -1.4177041632
H -5.6545515153 0.4740924498 -0.2314444085
H -5.2773389327 2.5485398502 1.2574829086
H -3.7375834871 3.4229953903 1.1443769368
H -4.9227490878 3.5349182610 -0.1742439904
H 0.2837851873 2.1863270898 -3.9837675404
H -0.7564296100 0.7356358783 -3.9986140411
H 0.0353027005 -0.9397952885 -1.4333791285
H 2.8986646788 1.4542664969 -3.6458553484
H 3.3830235794 -2.6565127527 -1.2930661973
H 1.9564148867 -2.5103697455 -0.2774841373
H 4.8076161622 -3.2001857781 0.5921202681
H 6.1777672182 -2.3796684303 2.4792451359
H 5.8136874155 -0.0932830511 3.3828442146
H 4.0706303861 1.3608764877 2.3736148553
H 2.7045671296 0.5371023663 0.4877212257
H -0.2821570008 -0.6257202736 2.8550633300
H -0.3409746570 0.6671793179 1.6352061334
H 0.6219298296 -0.7947811329 1.3575468164
