51
CONF53
C 1.5592033171 0.3134347119 0.7957354892
C 2.4462758540 0.2259824629 -0.4184205435
C 2.1137528828 0.9317417945 -1.5923245357
C 2.9534417532 0.8989905503 -2.7052917064
C 4.1439182573 0.1817446337 -2.6708435581
C 4.4775435000 -0.5262828970 -1.5252277880
C 3.6377727430 -0.5266333055 -0.4029603091
C 4.0499436896 -1.3325792007 0.7733960456
C 3.2078247608 -2.3134941911 1.3117587632
C 3.6210389037 -3.0904822855 2.3893951504
C 4.8821252392 -2.8980127920 2.9504978572
C 5.7298032338 -1.9276340256 2.4212402521
C 5.3183528495 -1.1543753342 1.3392010096
C 0.8602474016 1.7497642755 -1.6592269990
O -0.2785904708 0.8434993522 -1.5198396831
C -1.3774484587 1.3298482367 -0.9036394111
O -1.4937811734 2.4798545919 -0.5248972048
C -2.3817065210 0.2559832295 -0.7438203882
C -3.8187377606 0.6559153942 -0.4067019483
C -2.9727888379 -0.0744061906 0.6202342313
C -2.5583137684 0.7171316351 1.8390243135
C -3.2159889263 -1.5399701586 0.9039075053
C -4.9076989834 -0.0060627770 -1.1231221909
C -6.0722461082 0.5543570769 -1.4660174138
C -6.4270837311 1.9883369179 -1.1483022846
F -5.5639540891 2.8547698033 -1.7417292921
F -6.3526179210 2.2285917839 0.1873093522
F -7.6640497148 2.3324722765 -1.5419859562
Cl -7.2909850164 -0.3553466147 -2.3304857579
H 0.7355923649 -0.4079170182 0.7442026402
H 1.1085365161 1.3058516785 0.8859965967
H 2.1209779977 0.1089612271 1.7086973114
H 2.6709843859 1.4459008385 -3.6003788476
H 4.7989443084 0.1629780982 -3.5359798027
H 5.3928527032 -1.1100807141 -1.4949170898
H 2.2288504713 -2.4775355260 0.8717949657
H 2.9580442972 -3.8516456159 2.7893389052
H 5.2026387123 -3.5021421823 3.7934639496
H 6.7134247257 -1.7694143454 2.8528684642
H 5.9793521033 -0.3940023964 0.9331991034
H 0.7691959210 2.2560473116 -2.6241708059
H 0.8088813220 2.4999821582 -0.8653401649
H -2.2485338575 -0.5950597309 -1.4032465948
H -3.9255064046 1.7157280835 -0.2028966528
H -3.3276129189 0.6182321183 2.6120947023
H -1.6190749253 0.3223537843 2.2430730860
H -2.4235642627 1.7761086895 1.6152495886
H -2.3286880611 -1.9684007956 1.3815720521
H -3.4231659229 -2.1194513738 0.0020454140
H -4.0600332150 -1.6535182994 1.5930895037
H -4.7573485623 -1.0435688416 -1.4066190266
