53
CONF116
C 1.3049075942 0.3824009995 -3.7730227958
N 1.2982601851 -0.8306666658 -2.9488161747
C 2.0430863458 -1.8801916497 -3.6675159255
C 2.0669306825 -3.1942504099 -2.9002216974
C 2.6960212562 -2.9829538015 -1.5268014550
C 1.9508054371 -1.8703113648 -0.7968696304
C 1.8991124995 -0.5786187065 -1.6222548364
C 1.1571126046 0.5248228711 -0.8545709569
C -0.3583517518 0.3149453614 -0.7898380642
N -0.9860662583 1.2960003941 0.1066877914
C -2.2292854006 1.8599870961 -0.2535550790
C -3.0858569154 1.2598475943 -1.1844592347
C -4.2830138431 1.8758800771 -1.5414424579
C -4.6701251350 3.0744858376 -0.9504686540
C -3.8514339704 3.6569737980 0.0142107804
C -2.6379335716 3.0624870437 0.3444897356
S -1.5432371580 3.8570706603 1.5042974937
C -0.8934216231 2.3962796832 2.2740031534
C -0.6622808131 1.2624423260 1.4717813544
C -0.0910995501 0.1344548020 2.0712245232
C 0.2670100757 0.1838173321 3.4134265357
C 0.0461374405 1.3016845258 4.2094507584
C -0.5634208634 2.4074142626 3.6264720189
S 1.0305970082 -1.2689611607 4.1450632002
O 1.5936865590 -2.0981311839 3.0532017472
O 1.9325894063 -0.8187627518 5.2311303446
C -0.3428652971 -2.1674397677 4.8901806195
H 2.3207516551 0.8078808314 -3.8846252630
H 0.6573513630 1.1559728976 -3.3516286220
H 0.9268192334 0.1395516120 -4.7712168275
H 1.5676165926 -2.0191196612 -4.6457443426
H 3.0872427046 -1.5527455936 -3.8558763788
H 2.6252395506 -3.9381298023 -3.4799721478
H 1.0406357472 -3.5673217012 -2.7854995226
H 2.6760857046 -3.9072362642 -0.9385275595
H 3.7501628029 -2.6981619006 -1.6505776537
H 2.4312073328 -1.6438894904 0.1618607262
H 0.9299196588 -2.2090797576 -0.5777243216
H 2.9462301429 -0.2296064759 -1.7556449436
H 1.3473583208 1.5079296362 -1.2979929337
H 1.5877880735 0.5570912054 0.1515077319
H -0.6233529278 -0.7132589043 -0.5090382832
H -0.7718198679 0.4811528552 -1.7843867701
H -2.8253392016 0.3078511573 -1.6313515173
H -4.9220403172 1.3992404362 -2.2778887143
H -5.6054810572 3.5501936203 -1.2250963638
H -4.1423836228 4.5834336061 0.4995603081
H 0.0965259512 -0.7671222428 1.5016847283
H 0.3401894333 1.3151799106 5.2525056233
H -0.7585179023 3.2959912152 4.2180477936
H -1.0486710996 -2.4326250095 4.1000491484
H 0.0859566573 -3.0611449704 5.3522659227
H -0.8073397712 -1.5227345762 5.6395274002
