38
CONF72
C 1.8556840158 1.6254071137 2.4605886580
C 1.8440055959 0.4567146869 1.4798233212
C 2.1310506916 -0.8654946322 2.1984359927
N 2.8047191299 0.7363994659 0.3905984094
C 2.6627790605 -0.1053117679 -0.8063585613
C 2.0036459760 0.6928093040 -1.9358798245
O 2.7478047414 1.8900204939 -2.1855579056
C 0.5666931663 1.1023951375 -1.6315446063
O -0.1872669183 -0.0909944173 -1.3787861931
C -1.4729143462 0.0485184192 -0.9444349703
C -2.1548096234 1.2548027125 -0.8300034768
C -3.4883284081 1.2784903118 -0.3691123497
C -4.1688770498 0.1251980051 -0.0152235912
C -3.4676021527 -1.0797104860 -0.1345090349
N -3.8596126048 -2.3683316799 0.1405571887
C -2.8214215912 -3.2344096303 -0.1235351024
C -1.7369200472 -2.5231719574 -0.5759214077
C -2.1269280869 -1.1471202810 -0.5908853635
H 1.1494508725 1.4522748572 3.2786790350
H 2.8550418382 1.7439748663 2.8965618716
H 1.5871928648 2.5589744952 1.9568639195
H 0.8480810848 0.3930002295 1.0226935198
H 3.1055734221 -0.8163200123 2.6993116852
H 2.1445854495 -1.7081894613 1.4998980428
H 1.3676955571 -1.0689114673 2.9570277271
H 3.7425500095 0.6409374757 0.7652996699
H 3.6544109727 -0.4127655808 -1.1573233217
H 2.0843691486 -1.0206357670 -0.6196655242
H 2.0272219450 0.0992407984 -2.8577412126
H 2.9594838924 2.2255970299 -1.2963123092
H 0.5483931556 1.7607890247 -0.7510722777
H 0.1447898877 1.6464759485 -2.4866512276
H -1.6770669863 2.1894072220 -1.0974686595
H -3.9903878083 2.2381627536 -0.2938110014
H -5.1940171977 0.1530788660 0.3383291284
H -4.7669026922 -2.6389833199 0.4845814746
H -2.9412979049 -4.2969451314 0.0340157974
H -0.7808691552 -2.9353731230 -0.8617986170
