33
CONF17
C -6.7697720320 -0.1483801513 0.7129787673
C -5.5752914780 0.8051126306 0.7086579233
C -4.3080411224 0.0930334113 0.2419006399
S -2.9263858545 1.3033161433 0.2050910114
C -1.4860485683 0.3019476540 -0.1157728315
C -1.5582663277 -1.0167656263 -0.6023170798
C -0.4091875272 -1.7574901991 -0.8637393514
C 0.8294796537 -1.1615133267 -0.6484429901
C 0.8819024156 0.1677265703 -0.1675522692
C -0.2486080792 0.9160718155 0.1141303812
N 2.2314447874 0.4549272907 -0.0583730728
C 2.8944156064 -0.6719910795 -0.4659177231
N 2.1123359405 -1.6636657131 -0.8266758438
N 4.2730310332 -0.7639423965 -0.4977948344
C 5.1448636108 0.2330644490 -0.1397502878
O 4.8233481847 1.3383139276 0.2611805310
O 6.4126003388 -0.1951630643 -0.2977789732
C 7.4260683653 0.7781883538 0.0480704628
H -6.5914361615 -0.9986860870 1.3796557013
H -6.9627259266 -0.5411853105 -0.2907900296
H -7.6743834899 0.3632805204 1.0542509607
H -5.4162912592 1.2122537676 1.7136990202
H -5.7821350908 1.6560619833 0.0485962217
H -4.4587074278 -0.3230052488 -0.7601696918
H -4.0458714971 -0.7203068168 0.9276908902
H -2.5222834767 -1.4745021940 -0.7854574871
H -0.4786871047 -2.7750834791 -1.2336855144
H -0.1854539848 1.9285752540 0.4997277159
H 2.6828949481 1.3043787481 0.2483904595
H 4.6463181715 -1.6457000946 -0.8196107492
H 8.3749958244 0.2784193139 -0.1412755064
H 7.3398216416 1.0558525901 1.1011482309
H 7.3260573837 1.6668566709 -0.5793434851
