29
CONF7
C -3.1539280666 -1.4547198339 0.0361112904
C -2.1971906870 -0.3938790849 0.5147020060
O -2.5765197572 0.8889843525 -0.0702937540
C -1.4041003078 1.4696935205 -0.4758349296
C -1.1973050104 2.7575114847 -0.9220670509
C 0.1098409655 3.0879903285 -1.3071919555
C 1.1465092641 2.1642245651 -1.2324147801
C 0.9030722231 0.8651826672 -0.7811743919
C -0.3835161952 0.5282264960 -0.4197089944
O -0.8661542702 -0.6796357190 -0.0126425192
O 1.9297659356 -0.0674185910 -0.7608592454
C 2.2456865450 -0.5902192054 0.4855225521
O 1.7652156084 -0.2108076847 1.5288378930
N 3.1872076618 -1.5564752237 0.3453304930
C 3.6660242812 -2.0857654181 -0.9243505633
C -2.0988734248 -0.2433459948 2.0191979937
H -4.1613530188 -1.2286604253 0.3936279677
H -2.8491581547 -2.4280854269 0.4277372738
H -3.1567764200 -1.4877200913 -1.0551450869
H -2.0073152483 3.4752139237 -0.9680681837
H 0.3198949252 4.0920507614 -1.6583835614
H 2.1588640642 2.4335681153 -1.5110859085
H 3.4224522006 -2.0284429298 1.2008430341
H 2.8626090920 -2.5597495027 -1.4998926665
H 4.1081418572 -1.2941215518 -1.5358252847
H 4.4361924088 -2.8316648259 -0.7162647156
H -3.0712014648 0.0409677813 2.4296662967
H -1.3605126373 0.5249999012 2.2630494265
H -1.7775730682 -1.1879026951 2.4648769664
