33
CONF8
C -5.1568674296 0.6667394439 -0.7965335389
C -3.9852510513 1.2291744017 0.0021814035
C -3.8400011852 0.6322510480 1.3970615615
S -3.4854077459 -1.1849697421 1.4190575052
C -1.9498604870 -1.2269262163 0.4991068349
C -1.9185511079 -1.8881020156 -0.7422995151
C -0.7512843781 -1.9730094323 -1.4942236628
C 0.3969584501 -1.3637554713 -0.9934609826
C 0.3459615378 -0.6973905937 0.2551306628
C -0.8029556693 -0.6254231221 1.0260741426
N 1.6294781190 -0.2188580959 0.4568098307
C 2.3551218850 -0.6044767413 -0.6365994968
N 1.6734598444 -1.2874481947 -1.5303683356
N 3.6932644308 -0.3041565091 -0.7963994438
C 4.4593106530 0.4066805775 0.0947194128
O 4.0611952936 0.8706130823 1.1489282449
O 5.7162735980 0.5144339640 -0.3749687019
C 6.6215280859 1.2489273113 0.4836808785
H -5.2381425790 1.1616910107 -1.7687283862
H -6.1014146481 0.8128900674 -0.2607664794
H -5.0326997136 -0.4061393117 -0.9697801202
H -4.1069706161 2.3138143862 0.1254755267
H -3.0484245799 1.0838790182 -0.5498472991
H -4.7725219536 0.7304231309 1.9654940586
H -3.0500471683 1.1402625669 1.9592938432
H -2.8329325301 -2.3366221038 -1.1154837031
H -0.7350884672 -2.4882400855 -2.4487512759
H -0.8186294883 -0.1342739005 1.9932148125
H 2.0020986870 0.3085570158 1.2331955212
H 4.1228042371 -0.6464369510 -1.6444163534
H 6.7069467974 0.7535050938 1.4534265746
H 6.2657280513 2.2727433905 0.6194504060
H 7.5769226415 1.2396432794 -0.0389527184
