46
CONF17
C 5.8833063884 -1.0311818290 -0.2518653088
C 5.3076247146 -2.4160857202 -0.0377267125
O 4.3184436538 -2.4161718685 1.0245428874
C 3.0726206017 -2.0360167533 0.7336033574
N 2.7668425222 -1.7009450896 -0.5215148132
C 1.4745919090 -1.3739972381 -0.6991680967
N 0.5342153737 -1.4035125362 0.2676307961
C 0.9972157184 -1.7026819155 1.4783071068
N 2.2553137200 -2.0318160349 1.7919099816
N 0.1209319319 -1.6583527193 2.5477325775
C -1.2250242467 -1.2586959646 2.6124480684
O -1.7354632470 -1.0004431093 3.6833803955
N -1.8728438004 -1.2451750800 1.3872757207
S -3.4179158130 -0.5586615040 1.1861178030
O -3.6774655816 -0.6976973389 -0.2503369008
O -4.3245301739 -1.1038173338 2.1862896985
C -3.1616855950 1.1876097234 1.5340623050
C -3.4609774393 1.6515993820 2.8091128443
C -3.3231294378 3.0077004246 3.0855641167
C -2.9120597148 3.8837318043 2.0867505675
C -2.6256131853 3.4108634315 0.8099446879
C -2.7312421239 2.0509345428 0.5223600864
C -2.3161858255 1.5697887723 -0.8353454050
O -1.3204924824 0.9104530375 -1.0485050856
O -3.1399778113 2.0345427126 -1.7822237749
C -2.8393573303 1.5881648247 -3.1242922611
N 1.0624941684 -0.9874283356 -1.9210410976
C 1.9820648274 -0.7766281264 -3.0251429077
H 6.2949416752 -0.6373624238 0.6814235474
H 6.6893570721 -1.0809524908 -0.9909777807
H 5.1168073415 -0.3462975737 -0.6215219455
H 4.8592412529 -2.8140771654 -0.9518139230
H 6.0700028533 -3.1099731887 0.3248440827
H 0.5485812903 -1.7774384405 3.4553262073
H -1.2541023265 -1.2246664407 0.5564209590
H -3.7978632956 0.9485585178 3.5617522066
H -3.5483045731 3.3779498741 4.0797818315
H -2.8178064329 4.9437383199 2.2978859885
H -2.3113547137 4.0952336474 0.0288846738
H -3.6087689581 2.0319456272 -3.7545433152
H -2.8862865532 0.4969840380 -3.1658262774
H -1.8457069154 1.9301327391 -3.4256179670
H 0.1514040176 -0.5496823615 -1.9439708025
H 2.5881165071 -1.6710036350 -3.1893894284
H 1.3991912823 -0.5758621597 -3.9264469526
H 2.6608484368 0.0666925823 -2.8431390346
