44
CONF20
C -4.9383439867 0.6595107649 1.7529452995
N -3.6031072073 0.2900914964 1.2667470850
C -3.1712057473 1.1473170072 0.1394358707
C -3.9828105534 0.6460507959 -1.0883496157
C -4.2753864040 -0.8399071843 -0.7540410487
C -3.5995218019 -1.0472249158 0.6303207235
C -2.1362101361 -1.4887189060 0.4914564333
C -1.3909832057 -0.5222062761 -0.4168698412
C -1.6638037678 0.9342219393 -0.0539746906
O 0.0388705115 -0.8162674555 -0.2632322064
C 0.8569236597 -0.4593569017 -1.2596476488
O 0.4853511639 0.0294315398 -2.3131639120
C 2.3069199450 -0.7288224344 -0.9014796185
C 3.2042479037 -0.6212772275 -2.1471463954
O 3.2586328337 0.6919270347 -2.6974861984
C 2.7647387813 0.1770533150 0.2235523244
C 2.3696466574 1.5162740488 0.2828921993
C 2.8373343922 2.3472643747 1.2976593157
C 3.7094267224 1.8502659830 2.2639980323
C 4.1084477029 0.5164701994 2.2108849492
C 3.6368713630 -0.3145766390 1.1977226270
H -4.9009112359 1.6700138235 2.1729496248
H -5.7236736625 0.6414326220 0.9787068460
H -5.2338711337 -0.0302489538 2.5503226131
H -3.3660768673 2.1991576150 0.3714189548
H -4.9098949884 1.2158044466 -1.1925553933
H -3.4196237694 0.7673493600 -2.0185566528
H -3.8772912333 -1.5293315131 -1.5045869740
H -5.3510841709 -1.0216765038 -0.6841469543
H -4.1391515506 -1.7629697889 1.2584649336
H -2.0801178301 -2.5031433817 0.0817362488
H -1.6710936294 -1.4903503822 1.4834931844
H -1.6485957850 -0.7058386347 -1.4637560885
H -1.1452296442 1.1757237838 0.8811353918
H -1.2834226864 1.5946501360 -0.8401521861
H 4.2263771784 -0.8848950834 -1.8597572616
H 2.8570583724 -1.3472105665 -2.8962333881
H 1.6893756572 1.9146979313 -0.4648288483
H 2.5192600486 3.3847936022 1.3327327928
H 4.0729552477 2.4977790513 3.0557920068
H 4.7838444064 0.1194345620 2.9625840788
H 3.9469952864 -1.3555046564 1.1618320733
H 2.3638836080 -1.7668561544 -0.5502562927
H 2.3565499158 0.9000098769 -2.9812596985
