41
CONF7
C 3.6357598116 0.7882367642 0.9817737102
C 2.9950265033 1.2560713122 -0.2798057066
N 1.9753942887 0.5153562417 -0.7526039434
C 1.4250009524 0.9597792554 -1.8833260159
N 1.8133766374 2.0462828343 -2.5672866852
C 2.8366909871 2.6874568463 -2.0096592524
N 3.4667436641 2.3524621858 -0.8691737702
O 3.3254081327 3.7774492871 -2.5909538742
C 2.7064148666 4.2181444134 -3.8259767944
N 0.3567977765 0.2822384322 -2.4310281372
C -0.3408799949 -0.8459170873 -1.9868265892
O -1.3345022008 -1.2255257549 -2.5850464621
N 0.1875990051 -1.4655826274 -0.8765667625
S -0.6466294445 -2.7006010536 -0.0570452095
O 0.1580597058 -2.9240885693 1.1506944570
O -0.8888319989 -3.7991963339 -0.9930671545
C -2.2345153262 -2.0089602689 0.4244755551
C -3.3556411981 -2.4207724351 -0.2858278394
C -4.6155167015 -1.9951142335 0.1242409972
C -4.7446389035 -1.1870997582 1.2483837845
C -3.6177126400 -0.7931264934 1.9640521197
C -2.3440553294 -1.1870368147 1.5535751991
C -1.1593402534 -0.6360550368 2.2824313610
O -0.2808134904 0.0131365529 1.7526815388
O -1.2352076279 -0.8921181729 3.5914212906
C -0.1585460307 -0.3388353899 4.3965562098
H 4.2833034026 1.5597653014 1.3974029818
H 4.2363940342 -0.1034259501 0.7670674898
H 2.8704867762 0.4966437177 1.7058398831
H 1.6546409462 4.4590104490 -3.6567440064
H 2.7954990433 3.4438787594 -4.5910996918
H 3.2640354036 5.1085337366 -4.1126539906
H -0.0325886101 0.6909230924 -3.2715713088
H 0.9128272697 -0.9495319563 -0.3502164817
H -3.2406715375 -3.0743563403 -1.1417263869
H -5.4927909374 -2.3078795136 -0.4314324311
H -5.7266340506 -0.8632194830 1.5764779478
H -3.7184239415 -0.1620811032 2.8405109749
H -0.3764183384 -0.6499054629 5.4167356121
H -0.1538781197 0.7501318153 4.3134542585
H 0.7987769762 -0.7444308510 4.0618632394
