76
CONF541
C 2.9540076132 1.7428608526 -1.3204700907
C 2.9188048925 0.8224426696 -0.0976692518
C 4.1585744759 -0.0910281237 -0.0803510366
C 5.4836464281 0.6728416216 0.1091538141
C 6.6308544460 -0.2682729523 0.3042210065
O 7.0385066979 -0.9875724477 -0.7732209762
N 7.1929657455 -0.4301688465 1.4363203039
C 8.2761567267 -1.3935461590 1.5509170606
C 8.7975551788 -1.4098577561 2.9786758507
O 8.1775579450 -0.5659492309 3.8138252094
O 9.7035526193 -2.1263681044 3.3493339565
C 1.6494157736 -0.0472082559 -0.0355217899
C 1.6140402878 -0.9494384456 1.2382055938
C 0.1279460072 -1.1164571069 1.6380600827
C -0.6315393333 -0.5296657244 0.4498595804
C -2.1021487672 -0.1729529808 0.6392476900
C -2.9125624196 -1.3599038407 1.1671773384
O -2.6260946410 -2.5031802956 0.3342440690
C -4.4073219974 -1.0426260787 1.2247804744
C -4.9873293991 -0.4455039666 -0.0653055069
C -5.1502195721 -1.5078529845 -1.1669041395
C -5.7550743654 -0.9306784948 -2.4330536952
O -5.8552549412 -2.0049053759 -3.3884138318
C -4.8965528843 0.2173092412 -2.9476714859
C -4.7823767488 1.2913562517 -1.8672866283
C -4.1757445689 0.7947692221 -0.5358687701
C -4.3545914744 1.9411041954 0.4755659984
C -2.6777471231 0.3877828168 -0.6811873968
C -1.7928468208 1.5201838198 -1.2279271848
C -0.3054278878 1.1596633132 -1.3588658692
O -0.0934032895 0.2368331098 -2.4442271947
C 0.2563683163 0.6511299592 -0.0134100003
C 0.2697577556 1.8087135305 0.9983492599
H 3.9071857055 2.2744801799 -1.3953776440
H 2.1718464896 2.5026174339 -1.2779578318
H 2.8153219457 1.1631869244 -2.2406207215
H 2.9563115449 1.4406585754 0.8119456508
H 4.0755204564 -0.8117044719 0.7391508401
H 4.1832479204 -0.6706603353 -1.0138763935
H 5.4177962981 1.3128622236 0.9927814287
H 5.6983412873 1.3103103636 -0.7567022501
H 6.5352010223 -0.7309411163 -1.5596359157
H 9.1260913824 -1.1617604747 0.8932719084
H 7.9636366584 -2.4183746578 1.3042946703
H 7.4916472804 -0.1140670143 3.2627451530
H 1.6569650113 -0.6959635153 -0.9219031148
H 2.0795422123 -1.9190577120 1.0399427449
H 2.1878781617 -0.4847364827 2.0487216058
H -0.1019891536 -0.5549556407 2.5515762805
H -0.1391050808 -2.1605717778 1.8239772617
H -0.5802719154 -1.2824494134 -0.3511017022
H -2.1702859943 0.5974821139 1.4180473650
H -2.5680066249 -1.5806308131 2.1907193507
H -3.2298590922 -3.2087933928 0.5965713913
H -4.5596083907 -0.3401504433 2.0534289867
H -4.9592598337 -1.9538686468 1.4948225106
H -5.9992300818 -0.0810887036 0.1716467454
H -4.1853760893 -1.9569723910 -1.4203517796
H -5.7888760579 -2.3164948603 -0.7887413624
H -6.7653943641 -0.5445362096 -2.2114634825
H -6.2255368609 -1.6369852653 -4.2005757766
H -3.9089381249 -0.1744506535 -3.2249898785
H -5.3435092906 0.6453291013 -3.8544705916
H -5.7924322475 1.6647888897 -1.6448573732
H -4.2178807430 2.1525708366 -2.2386019440
H -3.9097427909 1.7296948659 1.4504785635
H -3.9111387187 2.8682554526 0.0990185846
H -5.4231676977 2.1272596207 0.6311381536
H -2.6412228760 -0.4396066747 -1.4042661545
H -2.1378308874 1.8226788459 -2.2220052348
H -1.8780097420 2.4019839342 -0.5841689031
H 0.2295604313 2.0613500316 -1.6703849863
H -0.6499948035 -0.5381478791 -2.2976539436
H 0.7645435747 1.5168584002 1.9290900241
H 0.8164288539 2.6655466877 0.5903648524
H -0.7338752120 2.1552005526 1.2550067983
