22
CONF1
C -0.8439811726 -0.0436086396 -0.0040076755
C -1.5388402154 0.8136064006 0.8504149080
C -2.9359812375 0.8154329105 0.8898134071
C -3.6476367419 -0.0584417771 0.0571809547
C -2.9638314370 -0.9248247707 -0.8059904962
C -1.5664122457 -0.9082057600 -0.8276915362
Cl -0.6966368019 -1.9691655001 -1.8851620267
Cl -3.8390661532 -2.0017737795 -1.8313149977
Cl -5.3725473946 -0.0676009601 0.0949784080
Cl -3.7767651580 1.8830763864 1.9529819735
Cl -0.6346559679 1.8836488797 1.8691922742
C 0.6368278898 -0.0370218068 -0.0356479012
C 1.3672202201 -0.8737735843 0.8094820369
C 2.7647440021 -0.8776421080 0.7881831564
C 3.4404829947 -0.0267391995 -0.0964777929
C 2.7207663128 0.8191407177 -0.9508065650
C 1.3237013883 0.8050090985 -0.9113489577
Cl 0.4095066633 1.8401219278 -1.9569401523
Cl 3.5515019501 1.8673796107 -2.0408125372
Cl 5.1654079698 -0.0203488137 -0.1340243370
Cl 3.6500207549 -1.9197118024 1.8405805836
Cl 0.5073981284 -1.9156311212 1.8937160842
