48
CONF92
C -3.1458864158 3.1521809627 0.6155180632
O -4.1151509634 2.2772693179 0.0201024771
C -3.8224054743 0.9502553825 -0.0160948240
C -4.8129516817 0.1439739742 -0.6309009583
C -4.6314266878 -1.2075406801 -0.7284691478
C -3.4589580603 -1.8276527637 -0.2254390230
N -3.3480924864 -3.1771591912 -0.3607531338
C -2.2535116002 -3.7472543191 0.1110949565
C -1.2115281866 -3.0396776529 0.7331104525
C -1.2918506845 -1.6707322384 0.8838421780
C -0.1380206989 -0.9412852830 1.5296194106
O 0.2658673641 -1.7192065400 2.6711980829
C 1.0474253414 -0.8115182312 0.5520257069
C 2.3143174383 -0.2073727209 1.2101342380
C 3.0616823967 0.5973834974 0.1308407992
C 2.2383229436 1.8583619611 -0.1689610177
C 0.7713844338 1.4093536089 -0.3882742447
N 0.6865446352 -0.0452006813 -0.6602180201
C 1.6795644656 -0.3705139399 -1.7027486746
C 3.1389328236 -0.2696180072 -1.1377320302
C 4.0918277727 0.1768543107 -2.2029767407
C 4.9494540498 1.1964173069 -2.1495287488
C -2.4562641739 -1.0128907545 0.3951380703
C -2.6689261061 0.3858886379 0.4879761994
H -2.1938818915 3.1057309884 0.0733748677
H -3.5662085945 4.1548868424 0.5382002805
H -2.9846891056 2.8975848716 1.6694971811
H -5.7081207504 0.6220746514 -1.0157462922
H -5.3824431819 -1.8364761865 -1.1959120100
H -2.1753473294 -4.8279399348 -0.0013141561
H -0.3440445828 -3.5803631633 1.0951706338
H -0.4494216293 0.0533391108 1.8700537687
H 0.9270924292 -1.2068834840 3.1540199874
H 1.2692860085 -1.8342960142 0.2191096459
H 2.9494880722 -0.9995998723 1.6196850037
H 2.0445621886 0.4673154322 2.0355347605
H 4.0632447359 0.8575384607 0.4868633070
H 2.6274639569 2.3627281776 -1.0589475643
H 2.3043222968 2.5635697628 0.6667086561
H 0.3151455918 1.9412727343 -1.2307338482
H 0.1680675853 1.6322793020 0.4965475437
H 1.5428781560 0.3390834040 -2.5279530151
H 1.4870627473 -1.3780673087 -2.0890240952
H 3.4501540005 -1.2827049190 -0.8396356841
H 4.0510418874 -0.4182030581 -3.1178914009
H 5.5925316319 1.4272971055 -2.9936745563
H 5.0423166245 1.8294892487 -1.2717300816
H -1.9208527900 1.0100274044 0.9537328936
