47
CONF96
C 5.1198927940 -3.6310200508 1.5498700122
C 4.5586668824 -2.2469179173 1.8992307655
C 5.4206477187 -1.1344069592 1.2855870174
C 3.1123590296 -2.0996507370 1.4756964517
C 2.7331155220 -2.2516349875 0.1371918990
C 1.4118345993 -2.0808123529 -0.2637537879
C 0.4649978406 -1.7428252943 0.6934651536
C 0.7968793440 -1.5996176852 2.0306338291
C 2.1237805765 -1.7844963902 2.4116921948
O -0.8815296773 -1.5396660516 0.3215469155
P -1.2175964686 -0.2232776119 -0.5347680484
O -0.8020863139 -0.2058831144 -1.9542755031
O -0.6291601318 0.9908331156 0.3470424985
C 0.3869341088 1.8348900545 -0.1363579624
C 1.6900261764 1.6109607285 0.2844655363
C 2.6877412022 2.4819367002 -0.1478479621
C 2.3751775022 3.5511276797 -0.9850465379
C 1.0576207703 3.7553264855 -1.3911581399
C 0.0488932250 2.8940026788 -0.9660087072
O -2.7897446971 -0.1915852170 -0.2265963847
C -3.5681672317 0.8016706191 -0.8580058358
C -3.8070603524 1.9870862292 -0.1776207682
C -4.6135505215 2.9488157007 -0.7823364613
C -5.1627558982 2.7156398823 -2.0412807208
C -4.9090873261 1.5147358235 -2.7015038040
C -4.1045716325 0.5430599024 -2.1109547100
H 6.1436199138 -3.7291511608 1.9255502722
H 5.1448937189 -3.7827453346 0.4653802066
H 4.5118770114 -4.4261511181 1.9926699172
H 4.5878597691 -2.1348752505 2.9900946377
H 5.4343990688 -1.2134711354 0.1929397670
H 5.0325427145 -0.1456651279 1.5511409274
H 6.4524803505 -1.2096210976 1.6443441524
H 3.4769671941 -2.5030035455 -0.6128083440
H 1.1210443897 -2.1960118930 -1.3022220353
H 0.0326075180 -1.3335667664 2.7531670990
H 2.3953740776 -1.6667207178 3.4570365059
H 1.9139933651 0.7729725632 0.9367149061
H 3.7119121752 2.3197053310 0.1728558683
H 3.1567008087 4.2252759374 -1.3197734907
H 0.8091884494 4.5875563985 -2.0419096029
H -0.9836410513 3.0338249016 -1.2704862863
H -3.3715677468 2.1473507942 0.8026950182
H -4.8114479457 3.8813595669 -0.2638496629
H -5.7904420743 3.4682399077 -2.5069964383
H -5.3381637690 1.3286063029 -3.6807543635
H -3.8951751134 -0.3985815060 -2.6066952302
