45
CONF102
C -6.6090731777 -0.9566749696 -1.0161098523
O -5.7234608599 -0.0376438560 -0.3441717969
N -4.4191433573 -0.4412025545 -0.5286801655
C -3.5610835416 0.3325419826 0.0614664318
C -3.8365819961 1.4976886352 0.8582921980
C -4.9532785705 2.2601265784 1.1172768918
C -4.5603210714 3.2591060041 2.0460528475
C -3.2401396087 3.0449271937 2.3089202882
O -2.7792424972 1.9841577124 1.6002061360
C -2.1263472422 -0.0519668595 -0.2048641349
O -1.2721289782 0.7838219157 -0.4922891457
N -1.8624127403 -1.3789188742 -0.1319521973
C -0.5787479945 -1.9025812497 -0.4791359272
C 0.6777582378 -1.5119788630 0.3592649637
N 1.2917513458 -1.0280857052 -0.8755411786
C 0.1898312291 -1.2915418731 -1.6796609926
O -0.0137511549 -1.1559917850 -2.8612350536
C 2.6493297089 -0.8479897742 -1.1193897976
C 3.5740682402 -1.2464522572 -0.2180088053
C 3.2112427793 -1.9070058987 1.0875307391
S 1.6532022454 -2.8888072910 1.0627250304
C 5.0439135225 -0.9831502321 -0.3692841189
O 5.5165554800 -0.1710946406 0.7436379407
C 5.2565315883 1.1647956822 0.6267425381
O 4.7597441823 1.6762490841 -0.3668649804
N 5.5999084075 1.8176082181 1.7587201791
C 2.9262422721 -0.0607898698 -2.3618843597
O 2.3017073955 0.9357970261 -2.6543362143
O 3.9103325047 -0.5832633156 -3.1089706967
H -6.5029498977 -1.9619902882 -0.5976276431
H -7.6127611287 -0.5728370135 -0.8281290197
H -6.4019511460 -0.9661898478 -2.0902811521
H -5.9307328557 2.1232469500 0.6867943332
H -5.1796673457 4.0367342131 2.4674429420
H -2.5191345592 3.5338757732 2.9463383494
H -2.6110482103 -2.0181663939 0.0913716445
H -0.6561008561 -2.9868358428 -0.6047304631
H 0.5213315731 -0.7194961006 1.0968956061
H 4.0019877659 -2.6094588347 1.3701543947
H 3.1439905537 -1.1597810870 1.8876302388
H 5.6030898356 -1.9172781575 -0.2690981622
H 5.3022646223 -0.5004935987 -1.3082083609
H 5.6206052905 2.8237385704 1.7319707138
H 6.1338745031 1.3469129638 2.4716348463
H 4.0607948026 0.0053069443 -3.8706152573
