33
CONF18
C -6.0424198226 0.9761443012 1.8410673117
C -5.4934263063 1.6092540048 0.5637835473
C -4.3252056734 0.8452299843 -0.0554828650
S -2.8827623548 0.8746329892 1.0917302195
C -1.5499292294 0.1996562188 0.1157437371
C -1.7564157139 -0.5103749398 -1.0822275098
C -0.6895476088 -1.0460621928 -1.8006404071
C 0.5993601082 -0.8773948373 -1.3028349995
C 0.7852688087 -0.1670657929 -0.0938005205
C -0.2591426539 0.3850128193 0.6291368360
N 2.1518097552 -0.1735102245 0.1189854949
C 2.7011525578 -0.8610950377 -0.9288307083
N 1.8230241676 -1.3025118199 -1.8063342369
N 4.0565817452 -1.0785351615 -1.0613364735
C 5.0208123542 -0.6528736674 -0.1798454041
O 4.8064252431 -0.0191340181 0.8407374687
O 6.2318506940 -1.0402130754 -0.6122590734
C 7.3404961173 -0.6477580600 0.2367564196
H -6.3164659659 -0.0702511597 1.6678603491
H -6.9347239032 1.5090738382 2.1824119150
H -5.3085285235 1.0017400521 2.6528169991
H -5.1967308742 2.6480945161 0.7510161162
H -6.2837060028 1.6407988979 -0.1960749676
H -4.0167529186 1.3089862412 -0.9976754951
H -4.6136293356 -0.1940888855 -0.2461186701
H -2.7598934733 -0.6546818559 -1.4627823360
H -0.8656571562 -1.5870474570 -2.7250197060
H -0.0874241397 0.9378406174 1.5472436729
H 2.6761966044 0.2350380630 0.8796410285
H 4.3441499751 -1.6013159725 -1.8779340344
H 8.2267613191 -1.0420970557 -0.2577489079
H 7.2267484771 -1.0863574601 1.2304677493
H 7.3917252531 0.4408664530 0.3082686520
