76
CONF8
C 3.9570717190 3.3534061673 -1.7534290197
C 2.7444812172 2.4650810674 -1.4141902956
C 1.8033196529 3.2505904469 -0.4919189882
C 1.9796102931 2.1400170632 -2.7114537069
C 3.2422165047 1.1692012828 -0.7683780051
C 2.9828599343 0.8400117711 0.5664981500
C 3.4179966672 -0.3628634400 1.1153691979
C 4.1395250572 -1.2806541377 0.3518131701
C 4.4460553712 -0.9396976078 -0.9664297677
C 4.0026344527 0.2596519867 -1.5155069733
C 4.5050522748 -2.6350794176 0.9182864349
C 3.2644855343 -3.5144046429 1.0879387616
C 2.6331717777 -3.9173050505 -0.2515165307
C 1.1153094140 -4.0989613816 -0.1876968873
N 0.3939101436 -2.8977558122 0.2516535276
C 0.5634557941 -1.7747145285 -0.6758265039
C -0.1239191808 -0.5280414861 -0.1345925977
C -1.6194615024 -0.7655532733 0.0719352302
C -1.7984794746 -1.9939810106 0.9694085051
C -1.0352661118 -3.1921923029 0.4090335567
C -2.3416185227 0.4906952788 0.6373535256
C -3.8302355546 0.1983596762 0.8256997755
C -4.4257351562 0.2111467858 2.0878870494
C -5.7826714199 -0.0785581629 2.2331845068
C -6.5616702262 -0.3854597700 1.1222705016
C -5.9732378514 -0.3974413213 -0.1418512106
C -4.6214578150 -0.1052804989 -0.2873392072
C -2.2017559759 1.7217689383 -0.2726206412
C -2.0458607609 1.6257226452 -1.6586911805
C -1.9491118722 2.7706214135 -2.4467267054
C -2.0110099301 4.0337154360 -1.8649977484
C -2.1765852578 4.1411586734 -0.4861515169
C -2.2715498021 2.9965246303 0.3001975099
O -1.8145450894 0.7991986822 1.9353835714
O 5.1074399578 -2.5219729267 2.2225465619
H 3.6202338007 4.2846935941 -2.2225987929
H 4.6357941314 2.8470142456 -2.4466663586
H 4.5168061872 3.6052784306 -0.8463175410
H 2.3085393279 3.5759019202 0.4232276085
H 1.4519512420 4.1454273773 -1.0157585695
H 0.9246016850 2.6573440659 -0.2123619286
H 1.1200600280 1.4931285446 -2.5050626084
H 1.6074039940 3.0665210636 -3.1627688564
H 2.6164519871 1.6399307069 -3.4465315768
H 2.4086149797 1.5133081412 1.1924330332
H 3.1756009377 -0.5975901164 2.1481982061
H 5.0235715449 -1.6293593852 -1.5776041748
H 4.2530530670 0.4828986182 -2.5480948674
H 5.2074706117 -3.1283453297 0.2271538141
H 3.5482521490 -4.4075526089 1.6570247232
H 2.5368375503 -2.9576467107 1.6892171965
H 3.0681553476 -4.8609612414 -0.6001804183
H 0.7562301235 -4.4379061346 -1.1806884798
H 0.8786981349 -4.8997884213 0.5262793439
H 0.1541451289 -2.0211522405 -1.6791883715
H 1.6288232021 -1.5600480044 -0.7973610500
H 0.3516095916 -0.2708461387 0.8204001717
H -2.0695925443 -1.0020649328 -0.9013563790
H -2.8584891539 -2.2576889947 1.0567270019
H -1.4293875952 -1.7651359342 1.9759131428
H -1.1407817208 -4.0480437954 1.0866845365
H -1.4849350536 -3.4874110393 -0.5628772673
H -3.8288391791 0.4438108742 2.9609733550
H -6.2286898241 -0.0646368446 3.2233362857
H -7.6173026455 -0.6111109489 1.2371938441
H -6.5694338461 -0.6314911784 -1.0186855731
H -4.1831793538 -0.1091692913 -1.2806586995
H -1.9879275901 0.6563284653 -2.1416351487
H -1.8169513001 2.6704101423 -3.5198905874
H -1.9304896925 4.9249828348 -2.4795332283
H -2.2311676919 5.1196971972 -0.0183278544
H -2.4016552208 3.0903891615 1.3730775272
H -0.9091931478 1.1132275985 1.8125751326
H 2.8802649662 -3.1773679745 -1.0204447813
H 5.8500742107 -1.9090175825 2.1454658211
H 0.0570498621 0.3063270513 -0.8185761952
