47
CONF89
C -1.9067891486 -0.5564523621 2.9395949617
C -1.4682001358 0.5456799220 2.0020001636
C -2.3674401314 1.7300880305 1.7453278515
C -2.2369605893 0.6364171178 0.6803671437
C -1.5451891375 0.9577519289 -0.5724819478
O -0.7979809490 1.8868236276 -0.7886294429
O -1.8417509464 0.0005801234 -1.5154858339
C -1.2174069804 0.1657332027 -2.8058147572
C -2.2733134682 -0.0338852245 -3.7980315236
N -3.1069203480 -0.1832461669 -4.5822564933
C -0.0507523292 -0.7924877047 -2.9843216217
C 0.2534990488 -1.3246548594 -4.2366175170
C 1.3642215061 -2.1523827796 -4.3786257325
C 2.1776188225 -2.4427120404 -3.2900054263
C 1.8629926419 -1.8982570113 -2.0481506603
C 0.7491686733 -1.0799428970 -1.8812521318
O 2.6587072407 -2.2697835597 -0.9844700148
C 2.9287477124 -1.3537759255 0.0221495144
C 3.2029426832 -0.0155827791 -0.2519860426
C 3.5495271393 0.8288782663 0.7988304238
C 3.6317291965 0.3437887248 2.1028209914
C 3.3614727489 -0.9989579838 2.3563322478
C 3.0032104299 -1.8546334584 1.3179708807
C -3.6614846168 1.8965124931 2.4105511777
C -4.1754948109 3.0594368091 2.8119328309
Cl -5.7273364998 3.1669516241 3.6035437469
Cl -3.3875934939 4.6005090408 2.6094636767
C 0.0208837115 0.7978792007 2.0202727651
H -1.7087074759 -0.2611115076 3.9758384261
H -1.3313664852 -1.4640024822 2.7296752413
H -2.9668270256 -0.7994472911 2.8442975407
H -1.8374403932 2.6438383171 1.4950146188
H -3.0637139623 -0.0583882749 0.5810443803
H -0.8597314866 1.2016032579 -2.8951369040
H -0.3673181430 -1.1009951551 -5.0977999161
H 1.5994868537 -2.5733941627 -5.3505602024
H 3.0463932250 -3.0846884648 -3.3878451870
H 0.5194277246 -0.6845463476 -0.8987195703
H 3.1511402695 0.3574773333 -1.2693922496
H 3.7642741972 1.8725661387 0.5910769753
H 3.9032566405 1.0090850527 2.9157570708
H 3.4203086491 -1.3858569667 3.3688707592
H 2.7862702747 -2.9023582597 1.4982811495
H -4.2640216497 1.0128418086 2.5970433198
H 0.3373078241 1.0121034322 3.0465594100
H 0.3099237654 1.6385915301 1.3880812853
H 0.5612298207 -0.0935930318 1.6819304282
