82
CONF373
C -3.5879960838 1.1704882027 -3.0166609732
C -2.3312903529 1.5180726587 -2.2644179821
C -1.2602799552 2.0023189085 -2.9047273524
C -2.3299592626 1.3770940952 -0.7580663334
C -3.1245451027 2.5188845212 -0.0804778057
C -3.4281534113 1.9816392730 1.3162737702
C -3.7796014136 0.4951519390 1.0954801692
C -2.9679317301 0.0802942920 -0.1812895036
C -2.1288476281 -1.2012596497 0.0498468160
C -1.3661769980 -1.6565497088 -1.1942745045
C 0.0394477062 -1.0828195751 -1.2966153284
C 0.9050798241 -1.4884039436 -0.0907007409
C 2.4555560723 -1.1730066385 -0.2600908572
C 2.8550930233 -1.1863044573 -1.7498781154
C 4.3588227223 -0.9448464471 -1.9780061395
C 5.0061898665 -0.0455153657 -0.9256822299
C 4.0222023821 0.9963569579 -0.3664563534
C 2.8386747037 0.2284370107 0.3432378973
C 1.6081409425 1.1333846828 0.4325274092
C 0.4842458380 0.5878150659 1.3154189776
C 0.2743739792 -0.9522145629 1.2359324541
C -1.2681666670 -1.3636170808 1.3545714369
C -1.9520621234 -0.5890418891 2.5152989587
C -3.4515323630 -0.3859415913 2.3114034827
C -1.3778626879 -2.8703589947 1.7041325088
C 0.9981367364 -1.5348823410 2.4720605158
C 4.7436315405 1.8364396378 0.7013191631
C 3.5801242194 1.9543766664 -1.4885676576
O 6.1686246906 0.5419588029 -1.5500649128
C 3.2480446098 -2.3218161750 0.4085300270
C -5.2635308377 0.3489344844 0.7541711588
O -6.0676326191 0.7041177103 1.8910097342
H -3.7194205533 0.0842753469 -3.0867215488
H -3.5551279118 1.5701035656 -4.0332822669
H -4.4807336811 1.5613884548 -2.5153288432
H -0.3466525275 2.2485841813 -2.3683416561
H -1.2674230776 2.1676161167 -3.9789833462
H -1.2926879838 1.4670536289 -0.4316613025
H -2.5551076088 3.4538456075 -0.0750541081
H -4.0568862646 2.7071647731 -0.6262690835
H -2.5354399528 2.0692215960 1.9467126029
H -4.2377070829 2.5193097802 1.8201310366
H -3.7052407506 -0.2428815857 -0.9276898607
H -2.9279956408 -1.9415965638 0.1892295100
H -1.2848501326 -2.7518578058 -1.1881254344
H -1.9427660864 -1.3963093977 -2.0915249608
H -0.0105874739 0.0025773854 -1.4096274859
H 0.4816148601 -1.4666001653 -2.2193261303
H 0.8451323408 -2.5853267173 -0.0475864651
H 2.2870401289 -0.4219532985 -2.2848305125
H 2.5731450303 -2.1477663075 -2.1965806826
H 4.9064052814 -1.8927021587 -2.0192290357
H 4.4972687576 -0.4648453427 -2.9539971022
H 5.3551557328 -0.6437254511 -0.0728502376
H 3.1937351599 0.0456836164 1.3666801133
H 1.8977182319 2.1181448121 0.8167018374
H 1.2355724780 1.3110525875 -0.5815865486
H -0.4318754723 1.1238469075 1.0669690032
H 0.6969925495 0.8541273416 2.3579585523
H -1.7950777261 -1.1303322193 3.4555646147
H -1.4928538146 0.3917941498 2.6574911352
H -3.9522906060 -1.3579044536 2.1996017951
H -3.8793052695 0.0755202931 3.2088591615
H -0.9331126846 -3.5099022480 0.9354488372
H -2.4331401862 -3.1486045835 1.7952636731
H -0.9019367017 -3.1048985627 2.6577238572
H 1.9753083192 -1.0692240045 2.6088047217
H 1.1432793636 -2.6157398817 2.4099008702
H 0.4198932900 -1.3180456004 3.3764073868
H 5.5142095711 2.4729087495 0.2518759963
H 5.2176953949 1.1929873402 1.4520874727
H 4.0387831577 2.4965086678 1.2175892298
H 4.4697940398 2.3479164531 -1.9891724141
H 3.0259752080 2.8048355273 -1.0821841840
H 2.9534164687 1.4769910365 -2.2451198908
H 6.7225871423 0.9129668916 -0.8525508536
H 3.1328208781 -2.3403565276 1.4909968430
H 4.3174247299 -2.2606736087 0.2014229815
H 2.8991987532 -3.2840940351 0.0158040446
H -5.5156811841 0.9894718225 -0.1051848487
H -5.4548571448 -0.6975478407 0.4653587686
H -6.9922307638 0.6478055506 1.6229878884
