33
CONF3
C 4.9654271521 1.1954141160 -0.5797974199
C 6.3720881037 0.7848965590 -0.1217320656
O 6.8035708424 -0.4550824854 -0.6638276405
C 3.8734732302 0.5065594916 0.2077305327
C 2.4480849726 0.7594735227 -0.3742844093
C 1.2609233466 0.3375731440 0.5657086682
C -0.1191141817 0.2027202287 -0.1672199067
C -1.3298827594 -0.1487060736 0.7739149175
C -2.7245983063 0.0591614510 0.0773966720
C -3.8881190065 -0.7013996140 0.8017166737
C -5.3160003725 -0.1891726753 0.4210201427
F -5.5462428820 1.0207377513 0.9411809596
F -5.4517535946 -0.1296596474 -0.9111756759
F -6.2230975688 -1.0445067693 0.9115194581
F -3.7533922187 -0.5684367162 2.1414971716
F -3.8225941826 -2.0096740450 0.4762054652
F -3.0073083692 1.3820953272 0.0731434361
F -2.6662207569 -0.3792852783 -1.1992884346
F -1.3035166740 0.6240874513 1.8793255853
F -1.2145033950 -1.4457451244 1.1419577113
F -0.3826544697 1.3751122671 -0.7942939584
F -0.0244211960 -0.7846674591 -1.0839633814
F 1.1609341467 1.2800517542 1.5286273663
F 1.5375766564 -0.8558257033 1.1413613476
F 2.3220412616 2.0901661838 -0.6193775091
F 2.3700752956 0.1035308898 -1.5579165336
F 4.0741192226 -0.8536628161 0.2288337486
F 3.8857033420 0.9269671427 1.5097031849
H 4.8282092381 2.2730838672 -0.4486446345
H 4.8475297220 0.9616719820 -1.6425697373
H 6.4318772657 0.7932903398 0.9766158345
H 7.0786365985 1.5317190826 -0.4946325032
H 6.2702709656 -1.1572248588 -0.2762199347
