84
CONF7
C 0.7244270102 1.2605950769 0.1499982427
C -0.7337733051 1.0044403431 -0.2384645425
C -1.4653167556 0.3214109514 0.9064878265
O -2.8281231661 0.0042378699 0.5038106937
C -3.7704527683 0.9480235835 0.7022473066
O -3.5394023245 2.0447827442 1.1805591164
C -5.1174027144 0.4895259280 0.2792209165
C -6.1790042571 1.3802365375 0.4516250589
C -7.4635091370 0.9900474452 0.0777045717
O -8.5722959250 1.7644290438 0.1969656924
C -8.3984694549 3.0784852393 0.7468860049
C -7.6806389772 -0.2900807749 -0.4599684453
O -8.9475609523 -0.6935981128 -0.7809276282
C -9.3314074257 -0.3433595237 -2.1296871424
C -6.6006978063 -1.1712741699 -0.6341159331
O -6.9164432119 -2.3781008778 -1.1709485477
C -5.8469493322 -3.3181948180 -1.3465150884
C -5.3140889359 -0.7843201014 -0.2601625920
C -0.8226254834 -1.0012001418 1.3044082496
O -1.4472164923 -1.5255304680 2.4799182281
C -2.3543988342 -2.6028733385 2.2359989163
C 0.6504767961 -0.7746985564 1.6461293740
C 1.3203726072 -2.0935609289 1.9651781368
O 0.9573733363 -3.1856004314 1.5780955522
O 2.4352460539 -1.8951929026 2.6930334604
C 3.2189187111 -3.0808981350 2.9785692484
C 1.4415893048 -0.0423673749 0.5340776812
C 1.6793051675 -0.9050455386 -0.7079377901
C 2.4207213452 -0.1384690448 -1.8065141081
N 1.7236845051 1.1268560964 -2.1267098143
C 2.4638825831 1.8588201994 -3.1698575654
C 3.8676745705 2.3383115258 -2.7364534546
C 4.5368407695 1.2632259564 -1.9441737265
C 3.8660342233 0.1491600230 -1.5077790592
N 4.7321493739 -0.6653912026 -0.7933647222
C 5.9748687085 -0.0758396218 -0.7543104543
C 5.8867037107 1.1541274784 -1.4698390742
C 7.0326442438 1.9472899936 -1.5680355966
C 8.2205088787 1.5270855252 -0.9760022510
C 8.2754245275 0.3048360541 -0.2771287103
O 9.4104115571 -0.1736473785 0.3289896574
C 10.5926301734 0.6269421718 0.2526924477
C 7.1512994938 -0.5129488857 -0.1573852414
C 1.5230205159 1.9723786406 -0.9401548935
H 0.7269254032 1.9206102012 1.0289976683
H -1.2293870808 1.9538461343 -0.4677131709
H -0.7963105782 0.3774759004 -1.1341489398
H -1.5096537667 0.9753736920 1.7847102960
H -5.9788790204 2.3557333861 0.8737346105
H -7.7294672981 3.6798966511 0.1208372829
H -9.3930467114 3.5244234439 0.7577213676
H -8.0048987215 3.0262384677 1.7683664183
H -10.3519007779 -0.7063635781 -2.2617295300
H -8.6665123746 -0.8294642150 -2.8526471415
H -9.3021807708 0.7434014006 -2.2658374007
H -5.0899353984 -2.9278582823 -2.0364367682
H -6.3082478269 -4.2093485322 -1.7722655233
H -5.3812903772 -3.5655068081 -0.3853024085
H -4.4726557120 -1.4498785889 -0.3867646420
H -0.9147195322 -1.7186593087 0.4776295706
H -1.8451467240 -3.4337157041 1.7300157175
H -3.2137291248 -2.2802278423 1.6352258153
H -2.7072087900 -2.9396744798 3.2137868445
H 0.6934170266 -0.1490621090 2.5468520068
H 4.0765734326 -2.7291757791 3.5503776282
H 3.5429633680 -3.5507684492 2.0466729458
H 2.6292228264 -3.7897254950 3.5645290799
H 2.4200593508 0.2246378067 0.9546307281
H 2.2488072864 -1.8053208389 -0.4508910662
H 0.7306834962 -1.2568649788 -1.1254625010
H 2.3741300750 -0.7574625822 -2.7163400239
H 1.8575662846 2.7147800364 -3.4885628414
H 2.5656513415 1.1847606057 -4.0298073128
H 3.7976470930 3.2658970903 -2.1506550321
H 4.4480873091 2.5900978152 -3.6331680736
H 4.5015506631 -1.5532355204 -0.3784624653
H 7.0064217156 2.8916392271 -2.1044817958
H 9.1008923132 2.1516066000 -1.0615490940
H 11.3601110447 0.0737982982 0.7957163968
H 10.4423842612 1.6046549767 0.7267543246
H 10.9117729552 0.7684619652 -0.7872475859
H 7.2138665622 -1.4503991314 0.3858514697
H 0.9897438656 2.8752369305 -1.2638250317
H 2.4802649302 2.2970849974 -0.4943038993
