43
CONF44
C 4.9685552210 -2.1208513634 -1.5709717988
O 5.2663457848 -1.2074516886 -0.5072988810
C 4.3669866958 -0.2117611711 -0.2641554263
C 3.1871622480 -0.0385176766 -0.9852993252
C 2.3862945606 1.0311097419 -0.5862286209
C 2.7206391379 1.9052023437 0.4737252416
C 3.9155108766 1.7093492675 1.1744069941
C 4.7232122333 0.6529213289 0.7984572682
N 1.7316683497 2.8687489777 0.6329810203
C 0.8447146320 2.5604550403 -0.2801634783
N 1.1778076781 1.4900204930 -1.0597592851
S -0.7012949789 3.4414476479 -0.5749906588
O -1.2110787667 2.8746680374 -1.8992885460
C -1.6907335937 2.6262413393 0.8197802117
C -1.7367782761 1.1418964145 0.6864060910
N -0.7393951609 0.4820349079 1.2971784530
C -0.6837178012 -0.8443335455 1.1666090581
C -1.6082510430 -1.5987654060 0.4473163677
C -1.4855510077 -3.0857979101 0.3147558773
C -2.6580940731 -0.8937252331 -0.1495527573
O -3.5830037940 -1.6009905911 -0.8805576950
C -4.8044589503 -1.8730929243 -0.1585716397
C -2.7421341255 0.5018263774 -0.0597781659
C -3.8639898680 1.2538161645 -0.7184855101
H 4.9001137113 -1.5957507289 -2.5310561850
H 5.7993130131 -2.8263193899 -1.5965204249
H 4.0330812909 -2.6585845834 -1.3758787387
H 2.8942301376 -0.6863911288 -1.8012154120
H 4.1984741309 2.3650978465 1.9912904025
H 5.6569321709 0.4605918018 1.3165666593
H 0.6083985901 1.1031844247 -1.7996949218
H -1.1695603638 2.9377073675 1.7292320630
H -2.6660447446 3.1149448629 0.7607849401
H 0.1422685964 -1.3486260675 1.6680811062
H -0.6088963554 -3.4462493723 0.8578039426
H -1.3889201793 -3.3755290891 -0.7365980765
H -2.3712662338 -3.5960198115 0.7064357535
H -5.3033092364 -0.9423058346 0.1331776731
H -5.4436763699 -2.4359819608 -0.8402639283
H -4.5945705700 -2.4718012224 0.7351986401
H -4.3477805398 0.6330740162 -1.4744109262
H -4.6229410192 1.5445920888 0.0178750419
H -3.4962633203 2.1599168120 -1.2015951109
