51
CONF4
C 3.9944358572 -0.9540605109 3.6702045720
C 3.5748986625 -0.2727870610 2.3839980727
C 3.4082235871 1.2275917363 2.5329963804
O 2.2770368834 -0.8753108155 2.0385761208
C 1.8506601301 -0.8267041482 0.7759191725
N 2.6215800218 -0.3009731984 -0.1737262574
C 2.0997829428 -0.3448243338 -1.4091828443
C 0.8692132690 -0.8639631743 -1.7207403336
C 0.1402768479 -1.3506387751 -0.6149940335
N 0.6267690746 -1.3552582867 0.6133511568
O -1.0880828476 -1.8046591924 -0.8765055642
C -2.0028396523 -2.0909446751 0.2317870210
C -3.2367336798 -1.2545349737 0.0644338468
C -4.4618027073 -1.8799864166 -0.1693074573
C -5.6282341720 -1.1368286568 -0.3287113527
C -5.5713001360 0.2518023178 -0.2698318331
C -4.3529105964 0.8855628899 -0.0417784885
C -3.1789917701 0.1495461504 0.1374212461
C -1.9074652312 0.8802469401 0.3785649387
C -1.2722087992 1.5507263465 -0.6088844021
O -1.7177838278 1.5378337116 -1.8660057331
C -0.9364860589 2.3146568090 -2.8062476982
C -1.2797203884 0.9378152637 1.7040306854
O -0.2649106433 1.5560815353 1.9897172455
O -1.9685693508 0.2037910491 2.6088388563
C -1.3894053011 0.1532207993 3.9323348547
C 2.9870749789 0.2671860962 -2.4727484968
F 2.4426035241 0.1749682358 -3.7034073564
F 4.1946943343 -0.3386629250 -2.5172746720
F 3.2083559337 1.5796879218 -2.2247534026
H 4.9665775511 -0.5638776463 3.9842243763
H 4.0821993388 -2.0346603369 3.5296663496
H 3.2680021838 -0.7553383315 4.4644887118
H 4.2752088062 -0.5077051684 1.5773285513
H 4.3713923854 1.6726104020 2.8006886841
H 3.0640355685 1.6835008545 1.6015078867
H 2.6881056630 1.4502915449 3.3266852484
H 0.4558013307 -0.8764967592 -2.7194974477
H -2.2405513367 -3.1550965700 0.1661939802
H -1.4960647378 -1.8907066928 1.1766510165
H -4.4984161017 -2.9642290886 -0.2294421020
H -6.5727703893 -1.6408594885 -0.5068670377
H -6.4721444881 0.8432914931 -0.3999015674
H -4.3037867511 1.9692106231 0.0090979376
H -0.3554953848 2.1042466100 -0.4073454561
H -0.9987834800 3.3771461806 -2.5537315431
H 0.1055183596 1.9805651862 -2.7958714317
H -1.3785954263 2.1336012427 -3.7852228127
H -1.3470622800 1.1544122294 4.3683254976
H -2.0513578621 -0.4891207382 4.5122757879
H -0.3829164966 -0.2715834880 3.8879600023
