88
CONF23
C 1.6544257828 -1.4184746904 -0.6920660462
C 0.1588306595 -1.4587627227 -0.3687948576
C -0.6267325516 -0.6934616585 -1.4231860538
O -2.0347693087 -0.6622019702 -1.0640634061
C -2.8130720670 -1.6812792642 -1.4971586837
O -2.3907146358 -2.6201982386 -2.1568181541
C -4.2158488088 -1.5447331168 -1.1037714142
C -4.6956786766 -0.5196672800 -0.3715516640
C -6.0715427002 -0.3094935401 0.0485835928
C -7.1119549344 -1.1771920934 -0.3177274869
C -8.4090449991 -0.9193172405 0.1157548401
O -9.4908906884 -1.6827044806 -0.1855292321
C -9.2741798721 -2.8337364711 -1.0137275707
C -8.6777730191 0.1981083014 0.9289218789
O -9.9462901489 0.4137028429 1.3924331053
C -10.7106763305 1.3198726817 0.5654916701
C -7.6355577235 1.0655790295 1.2893241031
O -7.9985773866 2.1165219982 2.0695898037
C -6.9674871232 3.0343251810 2.4604624147
C -6.3362966592 0.8108411103 0.8511579457
C -0.1839239695 0.7597947090 -1.5393046327
O -0.8356018707 1.3935940211 -2.6444931266
C -1.9167612026 2.2527204124 -2.2761368693
C 1.3189020540 0.8202216699 -1.8137318516
C 1.7850966520 2.2591869729 -1.8575319182
O 1.2413977079 3.1984450713 -1.3129286387
O 2.9424979574 2.3630960240 -2.5373313494
C 3.5382842413 3.6844168597 -2.5642233775
C 2.1686098483 0.0257670112 -0.7911441441
C 2.2063504244 0.6719169959 0.5960194891
C 3.0138524215 -0.1614782263 1.5947633044
N 2.5178522845 -1.5549389640 1.6388783081
C 3.3208353952 -2.3442079665 2.5899776620
C 4.8020987435 -2.5166256746 2.1838832144
C 5.3216963467 -1.2262516676 1.6393919471
C 4.4982122826 -0.1669044574 1.3548660091
N 5.2502992975 0.8864107155 0.8559959927
C 6.5730158551 0.5104850678 0.8056690197
C 6.6553738740 -0.8277841155 1.2901658076
C 7.9103478848 -1.4403019613 1.3349041861
C 9.0387981677 -0.7420124895 0.9142040147
C 8.9241491480 0.5808795335 0.4427899910
O 9.9917965539 1.3303004209 0.0146518733
C 11.2883779297 0.7295264691 0.0637131633
C 7.6875836881 1.2241770578 0.3818892887
C 2.5095019423 -2.1892084277 0.3119918943
H 1.7998968019 -1.8975949935 -1.6705054646
H -0.1883947207 -2.4972526758 -0.3448486638
H -0.0402422698 -1.0232096122 0.6160705803
H -0.5292681065 -1.1749437697 -2.4029056960
H -4.8467630520 -2.3532985210 -1.4578313837
H -3.9935517512 0.2449205320 -0.0476233053
H -6.9073678636 -2.0358693570 -0.9424223144
H -8.5883791619 -3.5399448528 -0.5317519954
H -10.2540139463 -3.2962056553 -1.1331684327
H -8.8802633848 -2.5431429254 -1.9945130948
H -11.6864690516 1.4212364897 1.0432138984
H -10.2189339388 2.2973413928 0.5120563743
H -10.8305800357 0.9053794932 -0.4419935978
H -7.4648547100 3.7907900891 3.0676405741
H -6.5093226590 3.5065716194 1.5838835709
H -6.1985862665 2.5295920640 3.0565105893
H -5.5188226630 1.4676237627 1.1220226761
H -0.4223088617 1.2933757313 -0.6089553102
H -2.7361479004 1.6938712387 -1.8072536939
H -1.5727101175 3.0396499801 -1.5918769642
H -2.2778430741 2.7121734288 -3.1995154390
H 1.4972755098 0.3785869665 -2.8025355255
H 4.4602935416 3.5738228897 -3.1333465024
H 3.7509408215 4.0217564338 -1.5467767370
H 2.8647231813 4.3910420226 -3.0547333134
H 3.1950103268 -0.0083966158 -1.1794423896
H 1.1950295520 0.7907574153 0.9971718079
H 2.6306570915 1.6809733731 0.5427584593
H 2.8287247014 0.2654744839 2.5930185378
H 2.8486528040 -3.3263054516 2.7097781714
H 3.2729478071 -1.8315353376 3.5590648416
H 4.9111438121 -3.3223685650 1.4439586381
H 5.3754679167 -2.8348307777 3.0638711339
H 4.8961085484 1.7879876531 0.5817663875
H 8.0148383311 -2.4590083247 1.6975243111
H 10.0050705064 -1.2286517299 0.9557508049
H 11.5630825385 0.4589284872 1.0906670653
H 11.3402189451 -0.1597988155 -0.5764145044
H 11.9793257058 1.4864011002 -0.3098697249
H 7.6200986900 2.2434411747 0.0153048495
H 2.1149980653 -3.2060101609 0.4343405710
H 3.5255057751 -2.2792834272 -0.1123439274
