35
CONF36
C -1.1044943126 3.0921638032 1.4303093990
C 0.2646928675 2.5796807054 1.8352335492
O 0.2113234630 1.1634387617 1.9309165859
C 1.4875096103 0.5581794723 2.0410627698
C 1.3006244214 -0.9394871530 2.0181542799
O 0.7566634236 -1.2938626991 0.7600487024
C 0.4811681599 -2.6848629777 0.6377975211
C -0.3138836801 -2.9334437950 -0.6289325295
O 0.4531358623 -2.8512735980 -1.8286972283
C 0.7480702765 -1.5373911092 -2.3082806292
C -0.4629670735 -0.7721541570 -2.8310706305
O -1.2929729106 -0.1843506149 -1.8314571465
C -0.7570927266 1.0138286761 -1.2803023566
C -1.8035656810 1.5857139049 -0.3374938085
O -1.4095616763 2.9049581072 0.0575222063
H -1.8699275281 2.6293272883 2.0731174416
H -1.1309549527 4.1758898778 1.5938985660
H 1.0058461294 2.8912344129 1.0802693110
H 0.5547460995 3.0208647324 2.8063105515
H 1.9865570779 0.8523329290 2.9810006026
H 2.1328295808 0.8644920171 1.2001597992
H 0.6189246289 -1.2432354730 2.8303610927
H 2.2752848656 -1.4305990597 2.1848765426
H -0.1201440404 -3.0261331142 1.4995107485
H 1.4194311677 -3.2648528316 0.6210422620
H -1.1750092946 -2.2537766397 -0.6568868945
H -0.6817430553 -3.9657672806 -0.5960112069
H 1.4271581160 -1.7025797138 -3.1533686616
H 1.2834729049 -0.9516843060 -1.5502413440
H -0.1107593544 0.0104441699 -3.5263512317
H -1.1038443128 -1.4632940419 -3.3910153754
H -0.5532046852 1.7441528629 -2.0813918719
H 0.1724181824 0.8239522208 -0.7247980088
H -2.7619905038 1.6618886813 -0.8678554631
H -1.9277405253 0.9262053540 0.5286569810
