33
CONF31
C 5.2830808727 0.0362536792 0.0026241177
C 5.5132139285 0.9923950623 -1.1736267458
O 5.7096492131 2.3439136877 -0.7866532999
C 4.0043345062 0.2265908366 0.7916758130
C 2.6924738303 0.1471091701 -0.0517938708
C 1.3866848073 -0.1033467021 0.7773253280
C 0.0735087255 0.2524213175 -0.0073823243
C -1.2124314068 -0.3916066117 0.6250297074
C -2.5396652515 0.3023659544 0.1576773174
C -3.8162529491 -0.5687966312 0.4195248902
C -5.1516177377 0.2453124613 0.3891295766
F -5.2612287974 1.0262954086 1.4683737192
F -5.2063838340 1.0060610148 -0.7135873871
F -6.1807418291 -0.6119621282 0.3758483508
F -3.7221968817 -1.1548217596 1.6354979783
F -3.8974300533 -1.5248669242 -0.5292775160
F -2.6731466215 1.4737245570 0.8197802990
F -2.4619942158 0.5517998692 -1.1692439802
F -1.1329646745 -0.2965515161 1.9708613287
F -1.2619209337 -1.6956870968 0.2719714881
F -0.0752813857 1.5966183002 -0.0145603897
F 0.1903007858 -0.1882335571 -1.2804223450
F 1.4282004766 0.6497155085 1.8976140262
F 1.3387742735 -1.4117617145 1.1187725342
F 2.5529413997 1.3200302403 -0.7320420746
F 2.8245455264 -0.8579927304 -0.9533061763
F 3.9256514197 -0.7397532266 1.7598420562
F 4.0041891129 1.4386502391 1.4298872136
H 5.2923016998 -0.9961188351 -0.3611021232
H 6.0938196673 0.1482421962 0.7310054077
H 4.7100881752 0.8966226310 -1.9173263687
H 6.4429956590 0.6862554870 -1.6623039307
H 4.8836239048 2.6863851144 -0.4272975154
