45
CONF3
C 5.3935321954 1.5450188196 -2.3136447327
C 4.0556699291 0.9559740992 -1.8710058278
C 2.8627274633 1.7151995826 -2.4545154098
C 1.5047054840 1.0770256554 -2.1517767477
C 1.1476953792 1.0546305995 -0.6661140271
C -0.2681741100 0.5230003015 -0.3850760185
C -0.6046270481 0.6200158110 1.1130599715
C -2.0364298903 0.2116354561 1.4511875878
C -2.3572913580 0.3499105973 2.9381371711
C -3.7894282317 -0.0547466941 3.2853588170
C -4.0983832056 0.0866419079 4.7742247113
C -0.4497508709 -0.8870525266 -0.9065761735
C 0.3363725890 -1.9371679012 -0.4215502173
C 0.1689227435 -3.2335896241 -0.8947800920
C -0.7915530237 -3.5072677459 -1.8656860491
C -1.5802807270 -2.4725847799 -2.3568003220
C -1.4076884596 -1.1760239635 -1.8791370238
H 5.4953661800 1.5110393239 -3.4037934845
H 6.2370819145 0.9983329901 -1.8811806431
H 5.4809408418 2.5929363989 -2.0061981144
H 3.9940081639 -0.0972328513 -2.1770548392
H 4.0028825611 0.9618314301 -0.7756734911
H 2.8752077370 2.7497853981 -2.0827769418
H 2.9881649458 1.7806815585 -3.5436570370
H 0.7213376589 1.6246004648 -2.6935811984
H 1.4884124751 0.0521455217 -2.5447509739
H 1.2253994663 2.0718568638 -0.2572319769
H 1.8713574054 0.4434462137 -0.1120371664
H -0.9781783671 1.1647311758 -0.9272988256
H 0.0975608361 -0.0047111490 1.6824255483
H -0.4321208329 1.6541868163 1.4412222838
H -2.7363431592 0.8265805596 0.8673911966
H -2.2034116001 -0.8262317235 1.1352312773
H -2.1870844102 1.3885007440 3.2559124372
H -1.6564460149 -0.2656700684 3.5197070826
H -3.9568208552 -1.0925683383 2.9689451756
H -4.4888438969 0.5593032914 2.7028449404
H -3.9638184631 1.1221239194 5.1054207217
H -3.4309705032 -0.5416413168 5.3740147025
H -5.1277790247 -0.2066457535 5.0015387544
H 1.0904377136 -1.7397729369 0.3351704588
H 0.7901492619 -4.0342182784 -0.5049597594
H -0.9226883090 -4.5191214788 -2.2354127714
H -2.3322559438 -2.6735422446 -3.1137067429
H -2.0275636817 -0.3713450085 -2.2659414433
