48
CONF1
C 2.6389675694 1.7739014674 1.1771167811
C 2.8200750230 0.7718776179 0.0159729252
C 2.2059437123 1.3259935842 -1.2696089982
C 0.6730776938 1.4157306339 -1.1387565571
C -0.0017103252 0.1089946890 -0.6663077025
C 0.6823579413 -0.5006834954 0.5878245993
C 2.1678759127 -0.6038933814 0.2838875741
C 3.1561556515 -1.3099717879 1.2262474519
C 4.4694763288 -0.7463900812 0.7216948167
C 4.2831523818 0.3717350578 0.0101201834
C 0.0734155035 -1.8613025085 0.9317235865
C -1.4433875019 -1.7856797929 1.0867388244
C -2.0830885982 -1.1865417417 -0.1637340864
C -1.5471951406 0.2342035581 -0.4907479460
C -2.1894316918 0.6660218817 -1.8237981454
C -3.7289577301 0.6170979840 -1.8110847702
C -4.2581417205 -0.7110095049 -1.3392937097
O -5.1381247122 -1.3172945413 -1.9372803597
C -3.6200227407 -1.2439139028 -0.0848073918
C -1.9019750502 1.2553459138 0.6030492480
H 3.2625449776 2.6566857109 0.9959886321
H 2.9517064095 1.3307153339 2.1276938495
H 1.6047433806 2.1108779220 1.2847068460
H 2.6114921659 2.3180910204 -1.5080431049
H 2.4653132888 0.6583560188 -2.1022580854
H 0.4189566250 2.2297597049 -0.4516838555
H 0.2629449793 1.7006125129 -2.1129682944
H 0.1461029906 -0.6328467207 -1.4704998813
H 0.5371075753 0.1664131594 1.4480451886
H 2.2528703398 -1.1483757575 -0.6713083748
H 3.1038736400 -2.4022133905 1.1639497129
H 2.9946325451 -1.0416294535 2.2818348990
H 5.4336065771 -1.1913865020 0.9504325383
H 5.0699725190 0.9891705500 -0.4162440396
H 0.3186085085 -2.5717513551 0.1275776752
H 0.5305507118 -2.2515356985 1.8492163324
H -1.7072880274 -1.1800228683 1.9642704015
H -1.8563592726 -2.7870273751 1.2619765772
H -1.7860914244 -1.8223423304 -1.0137641117
H -1.8192955613 0.0091375287 -2.6226984332
H -1.8880936382 1.6860626722 -2.0809178517
H -4.1416683914 0.8412612256 -2.7986214196
H -4.1088523092 1.3762451198 -1.1124216904
H -3.9608493343 -2.2698029787 0.0855063635
H -3.9691841660 -0.6322314498 0.7593260102
H -1.6384044993 2.2667611510 0.2795367868
H -2.9719917066 1.2607052355 0.8278452230
H -1.3754108970 1.0560892482 1.5390054832
