63
CONF17
C 1.5287906533 1.6938947149 0.8990253480
C 0.7485145007 1.2333701685 2.1253004172
N 0.5602721909 -0.2216956668 2.1253348776
C 1.8635505372 -0.8923634748 2.1434848091
C 2.6837113758 -0.5364259269 0.9081915976
C 2.8772324848 0.9783256721 0.8363419117
N 3.6708699925 1.3852709485 -0.3176138785
C 3.3748911437 1.2461631339 -1.6689811692
C 2.2929462866 0.6960680616 -2.3416891203
C 2.3098637752 0.7162346763 -3.7388474122
C 3.3766194223 1.2697154857 -4.4436692076
C 4.4697318962 1.8235311556 -3.7731145208
C 4.4523938797 1.8029368498 -2.3899385863
N 5.3617535416 2.2584444229 -1.4524351822
C 4.9106006714 2.0167910238 -0.1581732250
O 5.4720652093 2.2938263839 0.8866692153
C -0.2430082831 -0.6522097492 3.2785690758
C -1.7274446318 -0.2906768366 3.1933762349
C -2.5591381788 -1.1780174411 2.2612658919
C -2.1445128053 -1.1929603007 0.7774583453
C -2.9783592973 -2.2247687458 0.0338235705
C -4.2251444244 -1.9085921653 -0.5099172230
C -5.0053407343 -2.8765338866 -1.1341068379
C -4.5174086058 -4.1701409560 -1.2093080778
C -3.2857811204 -4.5263175279 -0.6873059069
C -2.5243146769 -3.5417942618 -0.0655531067
F -5.2656272634 -5.1172669341 -1.8218376589
C -2.1813329230 0.1565933776 0.0899902313
C -1.3921663673 0.3423770305 -1.0492182108
C -1.3906679321 1.5401725988 -1.7523599768
C -2.2026720408 2.5667619855 -1.2965723275
C -3.0079061719 2.4273871880 -0.1809013744
C -2.9916484040 1.2138395476 0.5053910822
F -2.2085501800 3.7413071941 -1.9668152866
H 1.6861033936 2.7769560173 0.9485872550
H 0.9361044816 1.4862307229 0.0027792524
H -0.2300978457 1.7227807402 2.1213267118
H 1.2779980246 1.5586991204 3.0468273712
H 2.4400635619 -0.6275199416 3.0560616720
H 1.6968529063 -1.9758467205 2.1737789309
H 2.1626901116 -0.8992779577 0.0152877560
H 3.6592243135 -1.0331200341 0.9513014258
H 3.4776493569 1.2892567666 1.7014921705
H 1.4560086810 0.2655014411 -1.8079228287
H 1.4739732287 0.2876896458 -4.2817626233
H 3.3622376252 1.2712149360 -5.5279457250
H 5.3028394570 2.2547509296 -4.3179444691
H 6.2405940378 2.7116973062 -1.6301610578
H 0.1786840644 -0.2396850009 4.2181091824
H -0.1570055900 -1.7452302363 3.3546369677
H -2.1451967355 -0.3880047968 4.2031132188
H -1.8441712973 0.7640438091 2.9252447099
H -2.5059313340 -2.2142729533 2.6196559671
H -3.6189202989 -0.8998893153 2.3377339709
H -1.1001268946 -1.5227674571 0.7396771666
H -4.5874251331 -0.8861353331 -0.4602544593
H -5.9718587552 -2.6391547166 -1.5643322166
H -2.9371978484 -5.5492048402 -0.7749430932
H -1.5543514473 -3.8035787613 0.3493567437
H -0.7718627519 -0.4810611133 -1.3938725587
H -0.7705716221 1.6902916345 -2.6297011638
H -3.6326111721 3.2535883081 0.1397046467
H -3.6264746413 1.1038375637 1.3783016510
