60
CONF181
C 6.8603331789 -3.4086840448 1.5456222280
C 6.5098390122 -2.9209938929 0.1422859806
N 5.6160159749 -1.7591261759 0.1586444762
C 6.2462272557 -0.4373137237 0.2154025241
C 6.5316551298 0.1512565368 -1.1657810334
C 4.2682867705 -1.9814267774 0.1694142145
O 3.7821590778 -3.1171942858 0.2270921139
N 3.4713016847 -0.8386449697 0.1175965310
C 2.0649861187 -0.8569957226 0.0867886459
C 1.3993797552 0.0821271169 -0.6958707708
C 0.0036158362 0.1448504821 -0.7506644331
C -0.7491228294 -0.7510928939 0.0370230222
C -0.0832778273 -1.6954593422 0.8232929041
C 1.3045543921 -1.7470756437 0.8530610099
O -2.0995541303 -0.5955143716 0.0346315683
C -2.9048574482 -1.5683755643 0.7224703375
C -4.3691211743 -1.1770072242 0.5831591030
C -4.7285599764 0.1633910897 1.2476908327
N -4.3206806581 1.2781714924 0.3870517628
C -4.9943837775 2.5827719028 0.6112256538
C -6.4456372979 2.4994126556 0.1285706441
C -4.2377268075 3.6037702933 -0.2438297019
C -4.9507809759 3.0150803285 2.0852646777
O -4.7824501727 -1.1675804332 -0.7820774853
C -0.5852993666 1.1456482778 -1.6882751280
O 0.0350615226 2.1733272404 -1.9464201733
C -1.8934606322 0.8573525480 -2.3747366115
H 7.3350436281 -2.6144772927 2.1307538374
H 7.5558908285 -4.2520335747 1.4887993461
H 5.9593201656 -3.7371325008 2.0713175073
H 6.0308820024 -3.7206284389 -0.4280496567
H 7.4174452316 -2.6272949609 -0.3969263293
H 5.6306348370 0.2415899771 0.8151518943
H 7.1856685461 -0.5527124541 0.7671292743
H 7.0358220486 1.1173237408 -1.0655777544
H 5.6103816985 0.3031197358 -1.7375012491
H 7.1801073564 -0.5168563239 -1.7404701169
H 1.9633612813 0.7772940730 -1.3108411988
H -0.6376401280 -2.3890561665 1.4426350860
H 1.7959857254 -2.4771140931 1.4822032592
H -2.7341934937 -2.5590545892 0.2808182624
H -2.6410467802 -1.5978728948 1.7885600622
H -4.9315348264 -1.9694189870 1.0956742797
H -5.8167027362 0.1895180148 1.3607908722
H -4.2919245994 0.1929155939 2.2587821461
H -3.3201153690 1.4155383369 0.4941617221
H -7.0379689948 1.7991669173 0.7253174328
H -6.4808718197 2.1808528216 -0.9182894282
H -6.9195904114 3.4826107593 0.2099624886
H -3.1890325541 3.6728037175 0.0692978693
H -4.6888287986 4.5950779902 -0.1411212095
H -4.2650466450 3.3153952644 -1.2998028541
H -3.9154228689 3.0549002964 2.4425580747
H -5.5096963912 2.3200416806 2.7200696767
H -5.3935459872 4.0093644685 2.2061946999
H -2.7213642288 1.2068472308 -1.7472649866
H -2.0453435522 -0.2118438002 -2.5370894713
H -1.9171582910 1.4054786302 -3.3190206519
H -4.6622396044 -0.2373948093 -1.0525142373
H 3.8837996440 0.0022836373 -0.2556563861
