42
CONF2
C 1.0382552170 -3.3465069297 1.4654181734
O -0.0564200666 -2.4320045304 1.2726468371
C 0.2305098699 -1.1399571434 1.4711184571
C -0.6591660103 -0.1666275725 1.1871417395
C -1.9889117039 -0.4614156796 0.6000761073
C -3.1422288566 -0.3385942661 1.3746255522
C -4.3942040768 -0.6312753622 0.8443248165
C -4.5070979089 -1.0510420568 -0.4763657237
C -3.3639486035 -1.1655425995 -1.2604222586
C -2.1047259114 -0.8770127354 -0.7375124774
C -0.8875319068 -0.9738711393 -1.6097278421
O -0.4068768375 0.3750986849 -1.8768295557
C 0.8668391740 0.7067875458 -1.5969943550
C 1.1901827533 2.0664082947 -1.7640648307
C 2.4754881127 2.4678129876 -1.4754162305
C 3.4133168627 1.5281043849 -1.0353196889
C 2.9835459823 0.2202268279 -0.9204660895
N 1.7430050217 -0.2000561695 -1.1929071721
C 3.9126523601 -0.8660834076 -0.4268761062
F 3.8611571598 -1.9700195800 -1.2008947469
F 3.5870378837 -1.2566918686 0.8355341042
F 5.1974461530 -0.4533126059 -0.3907305857
C -0.1981820766 1.2074644685 1.4327258416
O 0.8915573846 1.5283797860 1.8706529245
O -1.1458114387 2.1152523936 1.0798245501
C -0.7564257180 3.4864768780 1.2703391263
H 1.7663754164 -3.2411949453 0.6552612735
H 0.6026880204 -4.3457293365 1.4507503150
H 1.5261413947 -3.1676730932 2.4297666733
H 1.2131548084 -0.8922516717 1.8685208437
H -3.0488089664 -0.0131728087 2.4060015050
H -5.2798051349 -0.5332326654 1.4640716046
H -5.4804986525 -1.2807137451 -0.8974343022
H -3.4480108110 -1.4784596408 -2.2975868241
H -1.1404430947 -1.4114600147 -2.5803280891
H -0.0910870355 -1.5601165180 -1.1500689418
H 0.4257265614 2.7558632539 -2.1024017701
H 2.7586710665 3.5096007547 -1.5841505073
H 4.4292709447 1.8087619622 -0.7926986653
H 0.1458514279 3.7111848878 0.6941071494
H -1.6001003855 4.0800000040 0.9171462776
H -0.5585875326 3.6865944366 2.3271955942
