44
CONF16
C -3.5675028179 1.7910089502 1.0429994859
C -3.3188965973 0.3088360482 1.2252021232
C -3.8163256840 -0.5336670717 0.0665394738
O -1.8535444664 0.1656196862 1.3218807820
C -1.3722069705 -0.8841499273 1.9963376183
O -2.0462201738 -1.7347198613 2.5397242361
C 0.1572230117 -0.8472407250 2.0690859766
C 0.7521978771 -2.2024386568 2.4236122180
N 0.7526413142 -0.2527216453 0.8615495437
C 1.0035472179 -1.0953618141 -0.2582462426
C 2.3084095519 -1.2180720952 -0.7370796062
C 2.5639481914 -2.0297592506 -1.8329132066
C 1.5243672809 -2.7456116393 -2.4186884148
C 0.2337197575 -2.6582871332 -1.9267740311
C -0.0295245094 -1.8252064159 -0.8468540588
F 1.7761295022 -3.5394223307 -3.4755485047
Cl 4.1821149905 -2.1768071468 -2.4652052213
C 1.1206775371 1.0738876930 0.8956627968
O 1.1148772009 1.7285826483 1.9386794798
C 1.4872807602 1.7241194603 -0.3996124958
C 2.6316852400 2.5230407532 -0.4480724335
C 2.9610017966 3.1955139816 -1.6198350562
C 2.1317178926 3.1007623522 -2.7361682651
C 0.9716812095 2.3305546889 -2.6784775974
C 0.6532853088 1.6340631121 -1.5175052216
H -3.1686330268 2.3599933988 1.8868820375
H -3.0998124622 2.1483247999 0.1200205706
H -4.6443327356 1.9713630903 0.9789291208
H -3.7422580650 -0.0451958152 2.1699692131
H -4.9008368736 -0.4215782337 -0.0243317978
H -3.3539347073 -0.2017113226 -0.8689234022
H -3.5923580441 -1.5923642398 0.2228443523
H 0.3786250526 -0.1357896080 2.8755697580
H 0.4910781885 -2.9674358331 1.6881979180
H 0.3733304479 -2.5189056615 3.3966261324
H 1.8406475649 -2.1193476816 2.4787399792
H 3.1199745630 -0.6796003737 -0.2616021957
H -0.5548786562 -3.2304792075 -2.4030119481
H -1.0459039617 -1.7349431318 -0.4817400734
H 3.2631643128 2.6033099533 0.4310741677
H 3.8624603237 3.7985869949 -1.6610403887
H 2.3855678091 3.6320004468 -3.6480274873
H 0.3144512979 2.2694378436 -3.5400894263
H -0.2486371747 1.0318109305 -1.4745113266
