46
CONF37
C -2.9765744886 3.3823069878 -0.3791663582
C -2.3728346100 2.0290707340 -0.0480502413
C -2.7216097732 0.9758332674 -1.1017347482
O -2.4578450100 0.9788893171 -2.2811241878
N -3.4016057111 -0.0143229176 -0.4124591580
C -3.5928373251 0.3129787157 0.9362672774
O -4.1591353373 -0.3405462497 1.7712140022
O -3.0317990066 1.5186741585 1.1596995193
N -3.8229511948 -1.2140551505 -0.9447822553
C -2.8060876696 -2.1218675401 -1.3261651433
C -1.5490302168 -2.1149139539 -0.7170381998
C -0.6043544286 -3.0708983411 -1.0813605989
C -0.8988774640 -4.0376109401 -2.0391359754
C -2.1585098856 -4.0397829229 -2.6378457586
C -3.1098528286 -3.0884823487 -2.2903711929
C -0.8696268122 2.0243333553 0.1580185117
C -0.0417297527 2.6504614415 -0.7790676007
C 1.3392741877 2.5904473200 -0.6538784582
C 1.9043261710 1.9010510712 0.4164403695
C 1.0955408924 1.2807788725 1.3651614876
C -0.2862725715 1.3387608196 1.2251678807
O 3.2785958621 1.9294107845 0.5130654405
C 3.9329098573 0.8577067849 1.1071712205
C 4.9269967197 1.1526989803 2.0326434367
C 5.6620203045 0.1097706817 2.5920741810
C 5.3983037416 -1.2101179744 2.2333178270
C 4.3984470046 -1.4865434490 1.3012595262
C 3.6618186591 -0.4546965985 0.7275969519
H -4.0619382042 3.2919137317 -0.4711248509
H -2.7301068835 4.0922881431 0.4136417372
H -2.5755140330 3.7490214674 -1.3257863644
H -4.5460834300 -1.0731761124 -1.6427786191
H -1.3005224733 -1.3752183787 0.0369193426
H 0.3711338543 -3.0547080119 -0.6048545294
H -0.1575402332 -4.7790165053 -2.3175342704
H -2.4040177591 -4.7838722595 -3.3893388967
H -4.0878676196 -3.0887590926 -2.7634918258
H -0.4658086600 3.1773188364 -1.6264862145
H 1.9850090733 3.0711965754 -1.3809809104
H 1.5353060847 0.7567226012 2.2064532516
H -0.9064821055 0.8510356854 1.9680945781
H 5.1158367024 2.1862962895 2.3033702339
H 6.4398173273 0.3336518043 3.3154164977
H 5.9700933137 -2.0198899347 2.6744098740
H 4.1937245913 -2.5119608855 1.0095770599
H 2.8882589392 -0.6621785575 -0.0048235616
