41
CONF113
C -4.1978135877 0.5322187618 3.3007038089
C -3.9087721990 -0.7382066693 2.5015266279
N -3.4534195271 -0.4644857189 1.1395994885
C -4.4910414735 -0.3817917116 0.1218249979
C -4.6882784207 -1.7122936527 -0.5997992523
O -5.7357851020 -1.5086152701 -1.5446692011
C -2.1360646655 -0.2210368043 0.8534963963
C -1.7000670157 -0.0183897357 -0.4852153546
C -0.3785233081 0.2172846434 -0.7794111165
C 0.5895804348 0.2633582390 0.2423430977
C 0.1681450687 0.0663365179 1.5656883354
C -1.1549468463 -0.1674456392 1.8734313365
N 1.9470904594 0.4898257654 0.0582689921
N 2.3142836070 0.6632650597 -1.1424131587
C 3.6937696647 0.8884123191 -1.2952308902
C 4.1275946078 1.0855356686 -2.6144549240
C 5.4637697051 1.3163119191 -2.8913675108
C 6.3667645626 1.3483754207 -1.8336043864
C 5.9619032544 1.1554880817 -0.5123051134
C 4.6269198583 0.9256513692 -0.2431118534
N 7.7878214419 1.5920824022 -2.1161728766
O 8.5625142971 1.6163125417 -1.1640741151
O 8.1167386968 1.7556568690 -3.2874148228
H -4.9764320848 1.1265849793 2.8131650608
H -3.3033578550 1.1549376206 3.3870608842
H -4.5429787828 0.2785777805 4.3077072215
H -4.8181668764 -1.3449032068 2.4254931556
H -3.1698649575 -1.3635791953 3.0131321298
H -4.2663899003 0.4058063887 -0.6044405915
H -5.4333993315 -0.0976334028 0.6033556440
H -3.7494728271 -2.0121446511 -1.0894804973
H -4.9503850861 -2.4902988034 0.1349421422
H -5.8732013822 -2.3262519046 -2.0332662810
H -2.4091055268 -0.0638825920 -1.3023317287
H -0.0653084712 0.3637126258 -1.8065054147
H 0.9147517406 0.1103413501 2.3521883752
H -1.4313077138 -0.2928756726 2.9119156969
H 3.3899198255 1.0526211362 -3.4088293526
H 5.8175951643 1.4706318191 -3.9027053443
H 6.7010364377 1.1892141811 0.2784367099
H 4.2838851253 0.7724496745 0.7725231870
