32
CONF8
C -3.6885060907 -0.6241577746 0.3686925715
C -3.6881266224 0.7167079474 0.1195793170
C -2.4857699022 1.4310147539 -0.1120220685
C -1.2582877036 0.7173818494 -0.0708262339
C -1.2579253728 -0.6927672152 0.2054863075
C -2.4863797729 -1.3735692381 0.4168331480
N -2.5919210968 -2.7165761242 0.6292427866
C 0.0020997433 -1.4188492379 0.3020525229
O 0.0041732077 -2.6577190094 0.5661530726
C 1.2604064748 -0.7121603833 0.0943944290
C 2.4929020363 -1.4070944070 0.2169527102
C 3.6936562239 -0.6975089059 -0.0334586281
C 3.6872558856 0.6189894675 -0.3906357234
C 2.4800425496 1.3495312905 -0.5213842658
C 1.2542633665 0.6787107834 -0.2664200278
C -0.0044663953 1.4104466965 -0.3378909728
O -0.0081156336 2.6439443121 -0.6267224770
N 2.5729933129 2.6500400103 -0.9225398998
N 2.6023434039 -2.7116566965 0.6021093394
N -2.5841818941 2.7728827260 -0.3266413827
H -4.6288102795 -1.1427434986 0.5347003187
H -4.6276327529 1.2619864641 0.0936992370
H -3.4702384763 -3.0720400218 0.9711113390
H -1.7346769341 -3.2144293713 0.8281905081
H 4.6376044065 -1.2268541001 0.0641203385
H 4.6258756860 1.1318256015 -0.5825099137
H 3.4762790742 3.0935655062 -0.8762921994
H 1.7331801651 3.2084622828 -0.8507570278
H 1.7494756908 -3.2546912238 0.6073075000
H 3.4869560366 -3.1714947636 0.4575939307
H -3.4941325147 3.1586226956 -0.5196248630
H -1.7503358272 3.2501995839 -0.6404938939
