46
CONF4
C 0.8104142727 5.1174960321 0.1733146774
C 1.3021900148 3.7150609542 -0.0599094759
C 0.4129094360 2.7368407800 -0.5225754109
C 0.8470114395 1.4328903424 -0.7393695983
C 2.1913954316 1.0700997428 -0.5283317929
C 3.0560667614 2.0539405662 -0.0686099974
C 2.6263703583 3.3602247344 0.1715703791
C 2.6455675033 -0.3324246250 -0.8094254230
O 0.0397060740 0.4084866189 -1.1508650264
C -1.3583300909 0.6681924350 -1.3373005173
C -2.1057326052 -0.6340956299 -1.3166154198
C -3.0918809508 -0.8537087321 -2.2765404047
C -3.8773876780 -2.0000609885 -2.2561932678
C -3.6718376937 -2.9564480979 -1.2690451514
C -2.6766867923 -2.7636664701 -0.3204905237
C -1.8885496697 -1.6093032179 -0.3257158003
C -0.8502033273 -1.4567642742 0.7191364187
N 0.0639170559 -2.3137037464 1.0091628041
O 0.0747356853 -3.4299758549 0.1842575167
C 1.1452724403 -4.2910039975 0.5885876041
C -0.8550706179 -0.2047492349 1.5699048807
O -1.8628726657 0.4953452148 1.6302907503
N 0.3063664160 0.0687920932 2.2065409880
C 0.5237486147 1.2935796061 2.9530402710
H -0.0416861262 5.1274146769 0.8613773119
H 0.4768683376 5.5784433360 -0.7631340150
H 1.5969445050 5.7467656542 0.5965014604
H -0.6185373530 3.0158020490 -0.7041838311
H 4.0968848803 1.7931938554 0.1047344795
H 3.3308959529 4.1033311853 0.5324821998
H 3.7000095105 -0.4538701645 -0.5494585452
H 2.5175262216 -0.5815529951 -1.8685765076
H 2.0545546728 -1.0655655238 -0.2508789388
H -1.5109113111 1.1864692654 -2.2937020802
H -1.7359598901 1.2958021310 -0.5215355387
H -3.2475704905 -0.1088992807 -3.0519965781
H -4.6423115299 -2.1464118844 -3.0118261866
H -4.2795816582 -3.8547862920 -1.2391946252
H -2.5100460753 -3.5092611395 0.4484056974
H 1.1110710140 -5.1353354802 -0.1026109108
H 0.9983922996 -4.6397444736 1.6166979151
H 2.1100910401 -3.7780618131 0.5045656909
H 1.0779782570 -0.5587625281 2.0430485471
H 1.2703890930 1.9226004031 2.4525229696
H 0.8604944898 1.0750326297 3.9727516175
H -0.4226151620 1.8352946017 2.9991912766
