73
CONF3051
C -0.8810521687 3.0831963485 -0.7742682566
C -1.7216463185 2.3428813358 0.2430066676
O -2.9716225540 2.0175066855 -0.4121634732
C -3.8919450187 1.2999488593 0.3836360773
O -3.4075631118 0.0197274653 0.7558287613
C -3.4357652487 -0.9612757708 -0.2831050321
C -4.6364446863 -1.8928747089 -0.0710815976
O -5.8637111851 -1.1775978391 -0.1951869798
C -4.5695778068 -3.1038718026 -0.9970337706
O -5.6079320824 -4.0042491405 -0.6103908235
C -3.1992880564 -3.7818546370 -0.8644266967
C -2.9909073447 -4.9337011397 -1.8309470033
O -3.1842863112 -4.5538962261 -3.1942050075
O -2.1675649975 -2.8187677155 -1.1531446075
C -2.1426203683 -1.7646754678 -0.2111219732
O -1.0784902723 -0.9096797816 -0.5693903645
C 0.1947850310 -1.2756515235 -0.2404297213
C 0.5227979476 -2.5213911882 0.2963936263
C 1.8546448603 -2.7755812322 0.6038292544
O 2.1818232973 -3.9816060267 1.0927325430
C 2.8657069659 -1.8014296027 0.3806953219
C 4.2553338352 -2.1167300014 0.5723526748
O 4.6423896603 -3.2201956686 1.0079196562
C 5.2366495256 -1.0504571018 0.1658153330
C 4.6339189611 0.3371063959 0.3426775881
O 3.3782789641 0.4301375935 -0.4047552083
C 2.4761635519 -0.5505798091 -0.1610360328
C 1.1558276268 -0.2863197531 -0.4756781776
C 5.5274253720 1.4415643268 -0.1358342209
C 5.8408153317 1.5715823655 -1.4914198342
C 6.6956087567 2.5735122516 -1.9317331385
C 7.2622057744 3.4553582718 -1.0065391002
O 8.1170977519 4.4528569206 -1.3749141705
C 6.9583147801 3.3374747894 0.3500259398
C 6.0898453222 2.3384840476 0.7734771603
C -4.2295560096 2.0267227655 1.6850952944
O -4.9809186720 3.1853297418 1.3247333167
C -2.9484795859 2.4036536764 2.4203446087
O -3.3298051169 3.1863334222 3.5557697130
C -2.0066566874 3.1704661444 1.4993826461
O -0.8025995123 3.5159680271 2.1953246300
H -1.3773372846 4.0120545099 -1.0737378877
H 0.0954981961 3.3273857653 -0.3491375779
H -0.7295738985 2.4620948581 -1.6618094830
H -1.2230432250 1.4085183105 0.5433638516
H -4.7912176478 1.2113466644 -0.2362788292
H -3.4894964945 -0.4831900077 -1.2717048932
H -4.6111271730 -2.2488224086 0.9677727421
H -5.9661464873 -0.9156471571 -1.1212524133
H -4.7031410510 -2.7732950898 -2.0379281099
H -5.8407352948 -4.5440628830 -1.3755128338
H -3.0823483941 -4.1607895261 0.1650710604
H -3.7195249375 -5.7204972892 -1.6147961388
H -1.9840886628 -5.3451817968 -1.6727722921
H -2.5172722615 -3.8885700664 -3.4079423267
H -1.9940976202 -2.1535644116 0.8106535392
H -0.2070410584 -3.3058013728 0.4462736695
H 3.1757375863 -3.9764539273 1.1936539225
H 6.1506524040 -1.1429023536 0.7587854427
H 5.5008493615 -1.2153163549 -0.8883822374
H 4.3862668909 0.4923706484 1.4018881701
H 0.8658166137 0.6769314298 -0.8766318992
H 5.4077166702 0.8885815907 -2.2163339109
H 6.9287386142 2.6731144789 -2.9885742845
H 8.2503216447 4.4300847936 -2.3325586056
H 7.3985428570 4.0319279631 1.0581655791
H 5.8495303669 2.2547627736 1.8297807104
H -4.8336013468 1.3560703430 2.3139150568
H -4.9965161169 3.7565282709 2.1057901362
H -2.4448247535 1.4778585320 2.7446270685
H -2.5275087613 3.6156119967 3.8848442834
H -2.4659679751 4.1235784875 1.2123731308
H -0.3462598397 2.6940212578 2.4281608382
