45
CONF91
C 0.3551093946 -2.8504446784 -1.0638412057
C -0.9768643162 -2.2598810906 -1.3937079718
C -1.4685184521 -1.1513231537 -0.8347319362
C -2.7845353497 -0.5879119509 -1.1750952793
C -2.9955978566 0.9000946511 -1.5659636317
C -3.5601112641 0.3269012423 -0.2690877760
C -3.0103398883 0.7311242061 1.0800191890
C -5.0660894480 0.1599576455 -0.2632295419
C -1.8985407255 1.8737881914 -1.7176291716
O -1.8850532048 2.7438559851 -2.5613318767
O -0.8744343803 1.6887486407 -0.8386555672
C 0.2899205709 2.5228824571 -1.0517623010
C 1.4204398316 1.8330524679 -0.3551251975
C 1.9046791640 2.2525407578 0.8797783481
C 2.9221114252 1.5658895433 1.5287266624
C 3.4987395061 0.4246913790 0.9797785147
C 3.0074598799 0.0033941461 -0.2521573693
C 1.9956435251 0.6910350892 -0.9062462169
F 1.5589491937 0.2403788019 -2.0906707974
F 3.5173843193 -1.0978302234 -0.8332831302
C 4.5624360190 -0.3412424658 1.7323175382
O 4.0184141992 -1.1176199645 2.7910070519
C 3.2144681583 -2.1970483350 2.3304553625
F 3.3554272586 2.0208048029 2.7128126425
F 1.3840341206 3.3429089763 1.4646202492
H 0.8618079923 -2.2713116108 -0.2859007744
H 1.0066779720 -2.8711601251 -1.9457910764
H 0.2596214579 -3.8857627372 -0.7147671957
H -1.5643816878 -2.7754445915 -2.1544719588
H -0.8717837098 -0.6382183010 -0.0865621195
H -3.3898084471 -1.2496000452 -1.7919394518
H -3.7299997505 1.0596361337 -2.3486565226
H -3.4773489495 1.6667213226 1.4061903327
H -1.9322440441 0.8781378801 1.0807246732
H -3.2560331030 -0.0416654932 1.8167196079
H -5.5575397168 1.0986781784 0.0153259359
H -5.3572151994 -0.6052601498 0.4649112681
H -5.4423863482 -0.1441779490 -1.2441155079
H 0.4761314927 2.6126285125 -2.1250854313
H 0.1113586575 3.5180378174 -0.6383899215
H 5.2533366239 0.3616556593 2.2038488226
H 5.1215264897 -0.9749539250 1.0300028091
H 3.7762277143 -2.8509648808 1.6466306966
H 2.9178364902 -2.7648158891 3.2144036540
H 2.3090851948 -1.8409072242 1.8165926824
