36
CONF12
C -4.0149221037 -0.9515706299 -1.4717813790
C -3.2529331383 -1.7363621012 -0.4181321210
C -3.0705808120 -3.1990876715 -0.7715114464
O -1.9010405221 -1.1944476826 -0.2973631137
C -1.7464280764 -0.1194162817 0.4953496613
O -2.6693074554 0.4548149304 1.0526749885
C -0.3446608121 0.3128514049 0.5778633976
C 0.7153753881 -0.6536903396 0.1898154359
O 0.7184929070 -1.8255123007 0.4904103034
O 1.6893174554 -0.0541145599 -0.5379857255
C 2.8486384097 -0.8790163719 -0.8864969129
C 3.4725430058 -0.2103265243 -2.0947919389
C 3.7870277674 -0.9637277318 0.3046857470
C -0.0536591928 1.5477854061 1.0931352933
S 1.5953991422 2.1752638246 1.1928547172
C 1.1940511020 3.5114156758 2.3853286170
C -0.1555883031 4.0579492507 1.9840144348
S -1.2906639345 2.6253254744 1.7436435639
H -5.0224841883 -1.3640939488 -1.5841470355
H -3.5034726079 -1.0197182477 -2.4372075156
H -4.1015922959 0.0985152158 -1.1839553352
H -3.7404092360 -1.6270075461 0.5564879379
H -2.4823215131 -3.7106304765 -0.0058160192
H -4.0476353592 -3.6849681969 -0.8501804043
H -2.5537888214 -3.2994972137 -1.7307442399
H 2.4719799531 -1.8755128901 -1.1400840556
H 4.3412260334 -0.7861250886 -2.4272176059
H 3.8029331220 0.8024943961 -1.8444602067
H 2.7578628032 -0.1503503662 -2.9194623880
H 4.1438449762 0.0337788276 0.5789137059
H 4.6516288675 -1.5843465718 0.0492757056
H 3.2835592225 -1.4123302131 1.1639068149
H 1.9850904751 4.2641614224 2.3067851596
H 1.1790829611 3.1014427957 3.4000697142
H -0.5922662978 4.6838973809 2.7690335745
H -0.0942994931 4.6321568277 1.0540120791
