47
CONF65
C -1.8690497982 1.7797059146 -3.5057470741
C -2.3134711599 0.3430968538 -3.3567629716
C -3.2971290205 -0.0995574443 -4.4178377256
C -1.3690486366 -0.6973095599 -2.8289868870
C 0.0319482869 -0.3850507778 -2.5021311914
C 0.8913809554 -1.2456902645 -1.9614873697
Br 2.7115546256 -0.7844897969 -1.6473951488
Br 0.4013039735 -2.9995233522 -1.4150399350
C -2.5585035354 -0.2431788660 -1.9607954821
C -2.4497570077 0.5476964480 -0.7262579739
O -3.3630094340 0.7218146967 0.0548371904
O -1.2045509580 1.0712850270 -0.5288095275
C -1.0235616442 1.8473189703 0.6861896463
C -1.6147663174 3.1755120295 0.4991396162
N -2.0768473200 4.2233103337 0.3511194245
C 0.4585051716 1.8941764198 0.9625362941
C 1.2867287489 2.8079371066 0.3138708655
C 2.6566198999 2.7764133123 0.5610217438
C 3.1982594027 1.8394552148 1.4321713255
C 2.3578308309 0.9251143924 2.0659982233
O 2.9548245577 0.0621598344 2.9553278422
C 2.3174623711 -1.1327698248 3.2726862186
C 1.9505824035 -2.0339909363 2.2771640997
C 1.3836465867 -3.2496262751 2.6463230856
C 1.1967869353 -3.5628704922 3.9923259424
C 1.5797652031 -2.6522174577 4.9740993363
C 2.1400316728 -1.4268263949 4.6186520930
C 0.9831870822 0.9495309752 1.8431866337
H -1.2021889164 2.1140818555 -2.7102047796
H -2.7455602473 2.4357628211 -3.5103315832
H -1.3513420964 1.9019247483 -4.4633736870
H -4.2000700656 0.5190094069 -4.3827379441
H -3.5863455804 -1.1455303965 -4.2849212697
H -2.8453367034 0.0110805818 -5.4096977882
H -1.5218331886 -1.7059557879 -3.2063540473
H 0.4182201119 0.6020130329 -2.7382998701
H -3.3851828192 -0.9436630003 -1.9012912031
H -1.5577569328 1.3578004022 1.5077358859
H 0.8698795587 3.5373768272 -0.3733107826
H 3.3115079484 3.4853807476 0.0652905565
H 4.2642778873 1.8051350139 1.6303174310
H 2.1090718089 -1.7844866258 1.2328807766
H 1.0954494881 -3.9577276559 1.8755566662
H 0.7576328040 -4.5143793569 4.2734001196
H 1.4393509004 -2.8902563800 6.0237455821
H 2.4413007368 -0.7033640010 5.3689053282
H 0.3282010908 0.2471709613 2.3472914096
