47
CONF14
C 1.2233333764 0.1918684709 -1.5529351192
C 0.2317527442 -0.9305525104 -1.4438405080
C 0.4319056102 -2.0890306325 -2.2046309881
C -0.4617342340 -3.1479974118 -2.1482812343
C -1.5885706925 -3.0677837462 -1.3331839307
C -1.8291168615 -1.9308919942 -0.5640505790
C -0.8995063819 -0.8743503820 -0.6198265822
N -1.1513249984 0.2870841713 0.1926259941
C -2.0427274550 1.3619765481 -0.2907413332
C -2.2283943403 1.3280493346 -1.8067813483
C -1.5449702387 2.7467488687 0.1121509011
O -2.2962600601 3.6579604723 0.3957500288
O -0.2167232781 2.8733645222 0.0019894931
C 0.3236548233 4.1721534718 0.3495788137
C -0.8691973832 0.3094295837 1.5281390491
O -1.2628733424 1.2404429195 2.2398246168
C -0.0201892600 -0.8148179482 2.0955586949
C 1.4423150750 -0.6621651472 1.7366947510
C 2.1625776778 -1.7422678276 1.2240352800
C 3.5119501085 -1.6074643774 0.9058640043
C 4.1561394977 -0.3864596807 1.0927587307
C 3.4434912502 0.6969006666 1.6041849244
C 2.0962524279 0.5590585511 1.9250773929
C -3.0580320171 -1.8349262286 0.2954190183
H 0.9977164939 1.0083356515 -0.8695440602
H 1.2340972230 0.5861177728 -2.5755614136
H 2.2309624856 -0.1758368667 -1.3323205310
H 1.3079827738 -2.1491532711 -2.8447830643
H -0.2859597181 -4.0394018194 -2.7428487964
H -2.2936692073 -3.8929295378 -1.2945100723
H -3.0207639320 1.2638598191 0.1968133578
H -1.2739146116 1.4398167821 -2.3274090083
H -2.6937920983 0.3892914920 -2.1162329395
H -2.8874940272 2.1506133393 -2.0960943502
H 1.4014472224 4.0785219345 0.2217372374
H -0.0789901702 4.9393664838 -0.3157684352
H 0.0783581235 4.4118481464 1.3871970020
H -0.1471070632 -0.7695452723 3.1813604688
H -0.3803022561 -1.7876173496 1.7508738219
H 1.6601174386 -2.6926623971 1.0653680615
H 4.0585068532 -2.4563826742 0.5061095840
H 5.2066944565 -0.2789700758 0.8411508401
H 3.9377641294 1.6521986761 1.7533075498
H 1.5445708025 1.4077831305 2.3210188732
H -2.8123584439 -1.6029383969 1.3373283961
H -3.6106089878 -2.7764002520 0.2761619061
H -3.7270099687 -1.0422454113 -0.0587341592
