41
CONF18
C -2.0581599446 -3.2452646225 0.0916932623
C -0.8658352100 -2.9119836386 -0.8015871307
C -0.3757182354 -1.4460036323 -0.6973546072
C -0.0640974232 -1.1178688908 0.7685676191
O 0.7944357589 -1.6578459322 1.4428902547
C -1.0110266858 -0.0791569181 1.2239916640
C -1.1165708795 0.5173691309 2.4755668524
C -2.0845876280 1.5022324493 2.6433808898
C -2.9280636841 1.8773308406 1.5867188490
C -2.8247205141 1.2751555674 0.3368473076
C -1.8542264288 0.2923684081 0.1698495582
C -1.5214453866 -0.4867941961 -1.0387879418
O -2.0681035301 -0.4054259858 -2.1249833511
C 0.8349319741 -1.2616746543 -1.6335272494
C 1.3415032604 0.1601137196 -1.7836965374
C 0.8490518433 0.9910408267 -2.8885971669
O 2.1406377858 0.3471386838 -2.9803212851
C 1.9204559027 0.8115378155 -0.5648631425
C 1.2893586084 1.9055291082 0.0265148680
C 1.8337917338 2.4534554805 1.1817671035
C 2.9924491402 1.9532488254 1.7588808497
C 3.6223601736 0.8692227914 1.1483640227
C 3.0912771246 0.2979997876 -0.0008150526
Cl 1.0173852366 3.8189556358 1.9374545501
H -2.3452178770 -4.2912084059 -0.0461992809
H -2.9291775582 -2.6265439624 -0.1495153508
H -1.8235692948 -3.1021088830 1.1517707843
H -0.0142217063 -3.5559664925 -0.5539529191
H -1.1200669590 -3.0915014117 -1.8522824506
H -0.4574208478 0.2288768465 3.2878939206
H -2.1904534223 1.9948101258 3.6045758588
H -3.6705527209 2.6513647770 1.7519891098
H -3.4746929784 1.5620783911 -0.4833387717
H 0.5538738822 -1.6261543810 -2.6270172205
H 1.6465294503 -1.8970228281 -1.2586375301
H 0.8873504962 2.0757562957 -2.8048572748
H 0.0898144535 0.5845609427 -3.5540100002
H 0.3784088140 2.3152026251 -0.3962667515
H 3.3974558081 2.3979892030 2.6607066033
H 4.5326573037 0.4709494889 1.5846077913
H 3.5842001536 -0.5517635239 -0.4627802971
