36
CONF74
C 2.8448756172 2.0518368979 0.2550685281
C 2.6772267692 1.8333126583 -1.2557189744
C 1.9769846457 0.5425858979 -1.5487101510
C 0.7747827392 0.4294083625 -2.1155483277
C 0.0534364043 -0.8673808230 -2.3256185512
C -1.2274850387 -0.9644724953 -1.4850297199
C -1.0990086961 -0.6952326945 0.0205278222
C -2.5491845246 -0.4263133623 0.4588966458
C -3.1151324442 0.4207965362 -0.6862382530
C -2.3447230346 -0.0231391624 -1.9154808168
O -2.5715641843 0.3241797228 -3.0594758385
C -0.3970182164 -1.8239593904 0.7817374154
C -0.2801009957 -1.4967260467 2.2460569066
O -0.9175975926 -2.0180956490 3.1407828025
O 0.6125978654 -0.5084838769 2.4512149333
C 0.7651886607 -0.0672200858 3.8231936312
H 3.3935119393 1.2200921939 0.7100883151
H 1.8673607266 2.1173842580 0.7441487306
H 3.3958646993 2.9750548582 0.4598014516
H 3.6704771593 1.8286903489 -1.7247217038
H 2.1164016593 2.6667700984 -1.6944957091
H 2.4933609432 -0.3656862303 -1.2282268528
H 0.2466683219 1.3358282255 -2.4200569663
H 0.7135131078 -1.7048613129 -2.0746821332
H -0.2312491541 -0.9810419856 -3.3795243137
H -1.6578271611 -1.9735239298 -1.6150260392
H -0.5157452929 0.2260094863 0.1493089729
H -2.6095048414 0.0733688676 1.4297550325
H -3.0913789808 -1.3772779854 0.5318480493
H -2.8836292123 1.4854889815 -0.5405453906
H -4.1944689102 0.3422695427 -0.8431143973
H -0.9618738635 -2.7550208191 0.6816165799
H 0.6088714038 -1.9712306152 0.3727773422
H 1.1160644695 -0.8922843357 4.4476085001
H -0.1866174482 0.3090500909 4.2057397186
H 1.5069227512 0.7298231593 3.7889663488
