47
CONF68
C 1.4988861978 4.5232405523 1.2232770101
C 1.1776871521 3.0860132884 1.5657530831
C 0.5069252518 2.7515396587 2.8781671686
C -0.3097764775 2.7221290964 1.5860906545
C -0.7650622312 1.4198313142 1.0809616196
O -0.3661285481 0.3228816139 1.4087563289
O -1.7308381649 1.5999945036 0.1255861842
C -2.1658959499 0.3749871556 -0.5234353692
C -3.4796639283 0.6799788801 -1.0884933953
N -4.5166297067 0.8850327180 -1.5530491607
C -1.1900851314 -0.0612591908 -1.5932136170
C -0.5773579790 -1.3068449971 -1.4882057273
C 0.3445009885 -1.7055474520 -2.4515168554
C 0.6390688986 -0.8311984186 -3.4983506461
C 0.0434958381 0.4118854324 -3.6067101618
C -0.8869808439 0.7983278882 -2.6493771580
F 1.5398146620 -1.2216464974 -4.4241988415
O 1.0462133303 -2.8799785354 -2.4022628151
C 0.4411517377 -3.9993746835 -1.8350364558
C 1.2059764084 -4.7474412340 -0.9493391496
C 0.6704464690 -5.9201308173 -0.4215388377
C -0.6141115065 -6.3285686343 -0.7728685955
C -1.3645853581 -5.5630749282 -1.6644974490
C -0.8405996456 -4.3934262448 -2.2070184751
C 0.1900840433 3.7697019357 3.8818976161
C 0.3091052438 3.6114851887 5.2004860959
Cl 0.8693025357 2.1481968945 5.9637656935
Cl -0.0884116226 4.8811687142 6.3303174545
C 2.1863608180 2.0953755838 1.0316925680
H 1.6277455114 4.6223634952 0.1406274156
H 2.4377147807 4.8168823000 1.7056017174
H 0.7166490949 5.2178322170 1.5353003277
H 0.7489087707 1.7642126194 3.2591657415
H -0.9869587747 3.5497516802 1.4046057892
H -2.2895349874 -0.4157574830 0.2253191539
H -0.8031852620 -1.9650838148 -0.6561074073
H 0.3026519132 1.0552770006 -4.4404495477
H -1.3684740141 1.7678364434 -2.7255207821
H 2.2030508502 -4.4109521640 -0.6855007550
H 1.2612572368 -6.5114299661 0.2708268097
H -1.0289303993 -7.2404789210 -0.3563442654
H -2.3627684240 -5.8804740628 -1.9492266188
H -1.4141787892 -3.7969619725 -2.9090776081
H -0.1747779847 4.7347936417 3.5435720951
H 2.2150703614 2.1391194502 -0.0629752172
H 1.9621163641 1.0717062468 1.3346341451
H 3.1807515407 2.3580845943 1.4075403417
