74
CONF155
C -0.6160277467 -1.8042278728 -0.9682630303
C -0.0410396442 -3.0855800548 -1.5576343533
O -0.9125133815 -4.1365948908 -1.0172156396
C -1.5384946948 -3.7054215737 0.1118359436
O -2.2515612184 -4.4403332402 0.7533286001
C -1.1221008588 -2.2816777792 0.3846520692
C -2.1074966816 -1.2893467883 1.0066332547
C -3.4736748293 -1.2907656960 0.3277275431
C -4.4589128585 -2.1662197439 0.7875634919
C -5.7063675048 -2.2197355125 0.1625873143
O -6.7308102467 -3.0395019939 0.5349378013
C -6.4804869549 -3.9451888899 1.6168116920
C -5.9760591216 -1.3854625473 -0.9286314885
O -7.2034170569 -1.4437688181 -1.5258816953
C -4.9883173877 -0.5010557945 -1.3746073485
O -5.3742018129 0.2708936816 -2.4378203523
C -4.4204553779 1.2098987609 -2.9496157314
C -3.7433525043 -0.4474166012 -0.7524738862
C -1.4733970622 0.0967263176 0.9597798048
C -2.0655997697 1.0868356915 1.7696225370
C -1.6029917864 2.3746978434 1.6572354340
C -0.5972606069 2.7162618350 0.7600239270
O -0.3374957241 4.0590146399 0.8328171125
C -1.2386333611 4.5888715604 1.8302208644
O -2.0222124180 3.4846635347 2.3371977029
C -0.0038229527 1.7763289596 -0.0439898462
C -0.4383768875 0.4357642923 0.0731868836
C 0.2816053882 -0.6020578331 -0.7673868326
O 1.4776873206 -1.1175916651 -0.1045015101
C 2.4364360713 -0.1889321254 0.2661598029
O 2.9746309760 0.4061359126 -0.9247687264
C 3.9651191095 1.3767177677 -0.5947656974
C 4.4337729949 2.0769744868 -1.8593228387
O 5.4993553721 2.9705245625 -1.5102544765
C 6.5843118845 2.2828210552 -0.8960533750
C 7.6590835768 3.2860527507 -0.5752774031
O 6.1733700724 1.6608475620 0.3206562035
C 5.1623388557 0.6845064580 0.0557011404
C 4.7183394533 0.0134532049 1.3348060369
O 5.8091402791 -0.7141753261 1.8905087996
C 3.5433209533 -0.9276445310 1.0256518922
O 3.0638948753 -1.5297961313 2.2266506317
H -1.4702076663 -1.4883203040 -1.5795031345
H -0.0996746004 -3.1481953732 -2.6448839840
H 0.9778322374 -3.2856990785 -1.2158433453
H -0.2561434193 -2.3682973625 1.0606523570
H -2.2617358666 -1.5644552931 2.0564644120
H -4.2392092374 -2.8124877353 1.6268726977
H -7.3989849874 -4.5203827108 1.7369071851
H -5.6494217526 -4.6198886844 1.3797481067
H -6.2624156305 -3.4016638818 2.5437822169
H -7.2076842509 -0.7979230709 -2.2480904762
H -4.9146251255 1.7103897107 -3.7824728193
H -4.1480414785 1.9452324529 -2.1835234656
H -3.5205339235 0.6954647685 -3.3062722241
H -2.9939559739 0.2604013407 -1.0839591109
H -2.8796752750 0.8356328917 2.4419791252
H -0.6564172595 5.0241896008 2.6490880453
H -1.9069470620 5.3198889179 1.3628781684
H 0.7769965886 2.0447292080 -0.7489902962
H 0.5853490923 -0.1597292749 -1.7231976306
H 2.0100447082 0.6113504648 0.9002204600
H 3.5540076999 2.1246378513 0.1039897074
H 3.6385605230 2.6816793212 -2.3024062572
H 4.7770732211 1.3309593594 -2.5936514410
H 6.9360700534 1.4940588823 -1.5863997085
H 8.5061488637 2.7820919998 -0.1048164599
H 7.2661394667 4.0443435848 0.1076738347
H 7.9989648938 3.7702339358 -1.4934154641
H 5.5557839913 -0.0784465939 -0.6387216667
H 4.3753732401 0.7903137570 2.0413873097
H 5.4538826711 -1.2302373586 2.6277462176
H 3.9003101245 -1.7517711510 0.3964704514
H 2.6958086815 -0.8335945418 2.7899277117
