47
CONF93
C -3.7914763390 -3.2018874792 -0.0761470934
C -2.9843775324 -2.4569583403 -1.1446243489
C -2.4924382546 -3.4526376746 -2.2031821767
C -1.7921783981 -1.6335825228 -0.6151014480
C -0.8950122039 -2.3100239942 0.4417638887
C -0.1412682122 -1.1552046641 1.1485317367
C -0.6757631451 0.1478196895 0.5203876021
C -0.6443369246 1.3577441593 1.4611938950
C 0.7652355791 1.7040495605 1.8656479272
C 1.6211083688 2.3465424621 0.9648066807
C 2.9381130283 2.6410327183 1.3018437821
C 3.3990414992 2.2823244805 2.5631675915
Cl 5.0674294315 2.6522801187 3.0051604523
C 2.5791024485 1.6457607535 3.4847644649
C 1.2633696409 1.3623655701 3.1246566280
C -2.0723056896 -0.2455592631 -0.0084014757
O -3.0146325842 -0.4070709218 1.0635683768
C -2.7010495110 0.7677548019 -0.9851288358
N -1.8977256087 1.0566701004 -2.1648187158
C -1.9067034976 0.4334304654 -3.3596292702
N -0.9945958162 0.9657140259 -4.1660189412
C -0.4415954453 1.9378838203 -3.3879505364
N -0.9554632217 2.0326752773 -2.1679030301
H -4.6764011593 -3.6550720653 -0.5360129325
H -3.2025342242 -4.0129929277 0.3654647727
H -3.3289409754 -4.0263239308 -2.6161048821
H -1.9885303897 -2.9393603071 -3.0294876150
H -1.7843942018 -4.1644602861 -1.7626858329
H -1.1540488225 -1.4204505752 -1.4849436483
H -1.5076011555 -2.8528813591 1.1654575079
H -0.2160628681 -3.0329780367 -0.0184206920
H 0.9435369967 -1.2301951448 1.0334825048
H -0.3511608153 -1.1616529376 2.2235933160
H -0.0659862053 0.3911356813 -0.3585728364
H -1.0975046847 2.2243536149 0.9639710218
H 1.2533479840 2.6250518175 -0.0192009849
H 3.5917827578 3.1433869673 0.5974616206
H 2.9549058533 1.3773813937 4.4658509089
H 0.6157070341 0.8661628593 3.8418515925
H -2.8812948692 1.7170445741 -0.4710490414
H -3.6656722691 0.3818396907 -1.3262316723
H -2.5863646351 -0.3763894948 -3.5927909890
H 0.3501430374 2.5954544175 -3.7246060802
H -4.1202892695 -2.5388291771 0.7260107822
H -3.6697122889 -1.7597869698 -1.6477284752
H -1.2300916845 1.1414655587 2.3624111964
H -3.1298766773 0.4467901617 1.5026377453
