27
CONF436
C 3.0346739570 -0.5070164177 0.3620907159
C 4.0920347926 0.5626236220 0.0892608976
C 5.5163105717 0.0670184548 0.3016273839
O 5.8044987399 -0.2514722070 1.6745215838
C 1.6290834882 0.0437749568 0.1063057333
C 0.5552362802 -0.9859278718 0.3412307711
C -0.9185361878 -0.4783541284 0.2432210241
C -1.3027896898 0.2430961003 -1.0859561263
C -2.8398133811 0.4063916683 -1.3197151185
F -3.4272780652 0.9350471675 -0.2371169191
F -3.4120325412 -0.7699856630 -1.5984411701
F -3.0330117050 1.2304252920 -2.3601266157
F -0.8051317747 -0.4394208172 -2.1442408424
F -0.7609411435 1.4848337400 -1.0749029586
F -1.1331006544 0.3919003114 1.2630901018
F -1.7517832335 -1.5399414536 0.4089863070
F 0.6527749534 -1.5143857899 1.6082647295
F 0.6792617342 -2.0438170199 -0.5229643526
H 3.2163698189 -1.3742239386 -0.2839771044
H 3.1037215282 -0.8489236394 1.4004222558
H 4.0049945472 0.9051662926 -0.9506525420
H 3.9160919138 1.4349483707 0.7318295066
H 6.2245769246 0.8553512910 0.0280375148
H 5.7146382774 -0.8041541064 -0.3401555098
H 5.3481898128 -1.0725941850 1.8929445095
H 1.5458907151 0.3917608869 -0.9287840277
H 1.4277505295 0.8991156132 0.7608081865
