37
CONF20
C -5.1622028890 -0.4739210432 -0.2791790720
C -4.9232488896 -0.7928050715 -1.6111603345
C -3.8042768502 -0.2788344150 -2.2588001885
C -2.9299363328 0.5674353533 -1.5799497654
C -3.1719268013 0.9036278552 -0.2400679725
C -4.2867700515 0.3659821341 0.4029786207
C -2.3095019823 1.8869979252 0.5068485753
O -2.2789764773 3.0774505101 0.1870015497
N -1.6355436017 1.3676746559 1.5528646575
C -0.6448838212 2.1471305044 2.2896570907
C 0.6346781020 2.3645015265 1.4840757786
C 1.3465632103 1.0976771541 1.1035675290
C 2.4021140752 1.0932011264 0.1774727910
C 3.0405497506 -0.0835989807 -0.1691852384
C 2.6019613616 -1.2584103335 0.4334408326
C 1.5621364502 -1.1942815400 1.3533000213
N 0.9559579144 -0.0494182021 1.6728048858
C 3.2746523068 -2.5617108719 0.1238256414
F 4.3669461990 -2.7632260427 0.9082160945
F 2.4517597850 -3.6157365208 0.3229850315
F 3.7028552862 -2.6189833143 -1.1587024482
Cl 2.9342520371 2.5894047115 -0.5585909208
C -1.7216643456 1.0968472889 -2.3034754958
F -1.3919274420 0.3283414870 -3.3685331802
F -1.9068891754 2.3532594329 -2.7809249933
F -0.6221206214 1.1390791724 -1.5039476932
H -6.0293096213 -0.8782158774 0.2327666272
H -5.6001294140 -1.4484973614 -2.1482508898
H -3.6076768265 -0.5445896133 -3.2909705679
H -0.4366494435 1.6236614295 3.2249175085
H -1.0773754946 3.1221410318 2.5299356319
H 1.3228250080 2.9967103803 2.0620966074
H 3.8507735057 -0.0848075945 -0.8895462566
H 1.1990780041 -2.0924181068 1.8462831264
H -4.4724213919 0.6211565557 1.4415380112
H 0.4017443604 2.9315308441 0.5762893536
H -1.5911401023 0.3624999410 1.6380517344
