44
CONF117
C -4.3721045016 1.5007625769 2.5631354497
N -3.2737345632 1.2242127774 1.6294056986
C -3.6529416507 1.5164284251 0.2283053076
C -4.5806399729 0.3428552962 -0.1952230901
C -4.1149285473 -0.8360895548 0.6984009125
C -2.9680065578 -0.2220649210 1.5502910582
C -1.6073375148 -0.3704819138 0.8561789555
C -1.6861014105 0.1898275939 -0.5609023662
C -2.3628521759 1.5523972573 -0.6015995976
O -0.3364184154 0.3708195908 -1.1028897133
C 0.2829692489 -0.7154585566 -1.5900783529
O -0.2254726455 -1.8151750502 -1.6853016250
C 1.7144510931 -0.3849929951 -1.9746069387
C 2.3075250700 -1.5107411076 -2.8173542416
O 3.6026956402 -1.0784599379 -3.2449511966
C 2.5185370855 -0.1100375509 -0.7165554293
C 2.5904592434 -1.0702475078 0.2971349020
C 3.3258437470 -0.8231460625 1.4525618019
C 3.9999868076 0.3871791526 1.6078052740
C 3.9312751229 1.3481443740 0.6020763413
C 3.1912832018 1.1010427183 -0.5524589983
H -5.3062175474 0.9591256465 2.3376543576
H -4.0593161526 1.2278732176 3.5763997779
H -4.5919588907 2.5733900068 2.5518501914
H -4.1530017476 2.4884100192 0.1704385640
H -5.6268207533 0.5936783612 -0.0010236229
H -4.4915172600 0.1250507409 -1.2638038204
H -3.7662889015 -1.6951153118 0.1173348634
H -4.9263871538 -1.1867515877 1.3415596335
H -2.9160252682 -0.6502619789 2.5563283948
H -1.3069955414 -1.4230579649 0.8269006651
H -0.8534847799 0.1888272144 1.4225891683
H -2.2071150468 -0.5135652097 -1.2167619449
H -1.6906303443 2.3073848432 -0.1788009235
H -2.5826204574 1.8276745533 -1.6390013203
H 2.3743893065 -2.4304677625 -2.2208099224
H 1.6527701987 -1.7034472615 -3.6781533860
H 3.3709651756 -1.5758085835 2.2337230597
H 4.5741235806 0.5798348660 2.5086818849
H 4.4537523982 2.2931781437 0.7151616198
H 3.1367076879 1.8530152088 -1.3346368196
H 2.0654934202 -2.0155601382 0.1850473418
H 1.6927474767 0.5308824096 -2.5766785786
H 3.9879736463 -1.7888921048 -3.7715527773
