48
CONF23
C -2.9816886096 2.3229478866 -1.7998220319
C -1.4719111676 2.5409395749 -1.8422883396
C -0.7642231862 1.9525670056 -0.6207599016
C 0.7281994931 2.2917183360 -0.5990067772
O 1.2311977216 3.1610148978 -1.2801082528
O 1.3793862446 1.5845642641 0.3287893433
C 2.8080810177 1.8610143740 0.4682429172
C 3.3737473977 0.8158134063 1.4016815315
C 3.3467191660 -0.6028385574 0.8042314151
C 4.3300552588 -0.7591661932 -0.3144936525
C 4.0151422602 -0.9823202659 -1.5897449338
N -1.0215029929 0.5107289929 -0.4767029274
C -1.8056252500 0.0820378519 0.7068525165
C -1.0317614651 0.2012745789 1.9647941065
C -1.0560008722 1.0748978524 3.0087206731
C -0.0381110765 0.6512898682 3.9196355046
C 0.5360445290 -0.4498087812 3.3666657971
O -0.0593515174 -0.7442093097 2.1721342979
C -0.3606123738 -0.3110221655 -1.3195031925
O 0.5204358125 0.0511269981 -2.0901516733
N -0.7662306405 -1.6903990350 -1.3034232850
C 0.1019884528 -2.7676430356 -1.2708326343
C -0.6837751584 -3.8724583423 -1.4445116032
N -2.0074664280 -3.5062924892 -1.6154625133
C -2.0262183982 -2.1954335028 -1.5262843249
H -3.4554209800 2.7824168187 -2.6716773769
H -3.2336019604 1.2573828041 -1.8067729312
H -3.4194733795 2.7705582907 -0.9008305425
H -1.0435319486 2.1044282268 -2.7504296901
H -1.2451169875 3.6106652066 -1.8653238082
H -1.1729467016 2.4227479738 0.2843541611
H 2.9221114833 2.8729768213 0.8691686238
H 3.2682897217 1.8165100231 -0.5241297429
H 4.4071361157 1.1011801091 1.6341179609
H 2.8144102308 0.8366507801 2.3436631980
H 2.3344808656 -0.8386575401 0.4559959482
H 3.5905791818 -1.3146260305 1.6034634392
H 5.3804565847 -0.6551702789 -0.0363833307
H 4.7807630039 -1.0739736355 -2.3549429002
H 2.9783741625 -1.0750680393 -1.9053454376
H -2.6973053081 0.7109859604 0.7717300401
H -2.1333721892 -0.9485930673 0.5695482533
H -1.7230607769 1.9183154371 3.1134959802
H 0.2290078038 1.1067078466 4.8617917168
H 1.3303344595 -1.1128785397 3.6735032909
H 1.1610863246 -2.6367548719 -1.1110263264
H -0.3747277974 -4.9083020397 -1.4534440079
H -2.8894674180 -1.5516829236 -1.6400113955
