43
CONF2
C 1.5861273661 -2.9168403128 -0.4548617199
C 0.1583488477 -2.8230343114 -0.0577992095
N -0.8172818715 -3.4583292785 -0.6634533226
N -2.0447797954 -3.2156155368 -0.1349521493
C -2.0160006508 -2.3917104892 0.8810989386
S -0.3981348154 -1.8408389738 1.2725485308
S -3.4358506275 -1.8704539301 1.7831603751
C -4.0267807074 -0.4692992846 0.6588906242
C -2.9832027269 0.5828012413 0.5232053587
C -2.1766673335 0.6672585027 -0.5657431054
N -1.0493305745 1.4762958548 -0.5358473597
C -0.4778445944 2.1138127305 0.6430652371
C 0.4035616861 2.9754397177 -0.3108638704
C -0.2845782459 2.1780433872 -1.4543763091
O -0.2430763927 2.1874796368 -2.6600197140
N 1.8304497160 2.8880624534 -0.1937330607
C 2.4779865129 1.7184534672 -0.3909123764
O 1.9058177696 0.6726606266 -0.6797554725
C 4.0022279540 1.7996586172 -0.2543539576
N 4.5584722621 0.4652695804 -0.1938479938
C 4.9335723886 -0.3569451663 -1.1889564305
N 5.2487250281 -1.5306711953 -0.6724215256
N 5.0389863311 -1.4068510768 0.6661974673
N 4.6170426203 -0.2218246497 0.9637613173
S -1.8010223196 2.9576407215 1.5807108361
C -2.7717790311 1.4062789206 1.7707240148
C -2.2603379009 -0.1777583006 -1.7981393306
O -1.2844575142 -0.6896329999 -2.3035444780
O -3.5054784779 -0.2786426102 -2.2885680644
H 2.1893407318 -3.3280693328 0.3605231393
H 1.9818287426 -1.9248063533 -0.6950729017
H 1.6726577996 -3.5647466287 -1.3290874931
H -4.9111726149 -0.0970548298 1.1841575041
H -4.3252296999 -0.9200308122 -0.2838149828
H 0.0713127358 1.4179418537 1.2847299544
H 0.1037090889 4.0266474316 -0.3314215393
H 2.3484937319 3.7168299581 0.0615441219
H 4.4194130417 2.3161784302 -1.1246149594
H 4.2917334598 2.3464575256 0.6469465338
H 4.9721338306 -0.0692291963 -2.2303785601
H -3.7489983460 1.7142266040 2.1589933296
H -2.3005894648 0.7892015557 2.5458942069
H -3.4834184119 -0.8763936975 -3.0573584569
