59
CONF89
C 0.7859029947 0.8272184066 3.8904611872
C 0.1995323297 1.0430955713 2.4652524334
C 1.4166363521 1.2784800753 1.5515363374
C 2.5832290138 0.5629748328 2.2609536298
C 2.3158571246 0.9338182478 3.7283215202
C 3.9517943353 1.0121371200 1.7701659954
C 4.2453778186 0.6030708819 0.3503627369
O 4.9701727977 1.2635486570 -0.3810403204
N 3.6792629237 -0.5901477384 -0.1127198877
C 2.8451867930 -1.4065055575 0.6602625839
O 2.4171017872 -2.4622125289 0.2145569255
C 2.5183147015 -0.9511512369 2.0589881103
C 3.9796827839 -0.9952929913 -1.5032288368
C 3.0917221076 -0.2829289233 -2.5238721735
C 1.6018708310 -0.5595774666 -2.3375848579
C 0.7542733827 0.1348986659 -3.4143978250
N -0.6857905137 0.2502906089 -3.1387382397
C -0.9829796468 1.2202684759 -2.0797699833
C -2.4936263813 1.3893375780 -1.9348474266
N -3.1077669899 0.0924706904 -1.6342455547
C -2.8192322763 -0.8820891826 -2.6914869415
C -1.3083277207 -1.0445455733 -2.8443681943
C -3.2807411473 -0.3120086126 -0.3363341680
N -3.2228629814 0.6386100933 0.6278616700
C -3.4479595351 0.2325532830 1.8759882279
C -3.7244534247 -1.0881672631 2.2090104891
C -3.7580523115 -1.9832565623 1.1458871774
N -3.5390461976 -1.6244139859 -0.1179775219
H 0.5077784790 -0.1599365653 4.2724767915
H 0.4101689938 1.5635198524 4.6058699690
H -0.3583965515 0.1583705810 2.1416262520
H -0.4970350873 1.8851192855 2.4261845176
H 1.6528581649 2.3482958940 1.4991879993
H 1.2525100882 0.9288231379 0.5269541674
H 2.6416506741 1.9696501873 3.8842028636
H 2.8711627837 0.2997911830 4.4274932465
H 4.0674442905 2.0982618572 1.8239036792
H 4.7371478880 0.5659469481 2.3984918100
H 3.2443980171 -1.4406179999 2.7245458012
H 1.5360263477 -1.3647478900 2.3008781819
H 3.8340031547 -2.0751629601 -1.5575649264
H 5.0312657337 -0.7677114452 -1.6891165768
H 3.2760223695 0.7970606905 -2.4760967557
H 3.4118990110 -0.6155982145 -3.5201477692
H 1.2919019526 -0.2082545560 -1.3465037832
H 1.4257260853 -1.6409046110 -2.3561897707
H 0.8745607396 -0.4030024405 -4.3652215607
H 1.1344300465 1.1532430028 -3.5724127953
H -0.5784405281 0.9152212620 -1.0943164874
H -0.5293730451 2.1828560441 -2.3450427629
H -2.9192617485 1.7485784303 -2.8797339832
H -2.7271413198 2.1041254875 -1.1471642390
H -3.2495270074 -0.4980247017 -3.6243887023
H -0.9153697760 -1.4944094880 -1.9119040897
H -1.0925357808 -1.7366224320 -3.6679819118
H -3.3975672051 1.0011138449 2.6469316332
H -3.8982433991 -1.4003496934 3.2310924990
H -3.9655793611 -3.0395275341 1.3152619987
H -3.2853150888 -1.8372669585 -2.4540438382
