34
CONF22
C 5.4286758279 -1.8081124659 -0.9693091856
C 4.8899523101 -0.5288714909 -0.3745548666
O 3.4492431245 -0.5294525726 -0.5884694423
C 2.7902138967 0.5372065965 -0.0928522135
O 3.3242752451 1.4649952175 0.4719485805
C 1.2956393120 0.3888477647 -0.2866083140
C 0.6185847633 1.7490728670 -0.3579317356
C -0.8787541801 1.6423892642 -0.3905445212
O -1.5106195111 2.5935598046 -0.9333381691
C -1.5599318295 0.5108523032 0.1769038576
C -2.9806665054 0.5003915079 0.0721979914
C -3.8520411208 -0.5639898655 0.5550024263
C -5.1328531373 -0.8373477579 -0.2329124927
C -5.2302477967 -0.1620579543 1.0805403010
O -3.5797378578 1.5033888033 -0.4999431363
C -0.7970625872 -0.5467073107 0.8501712452
O -1.2927231195 -1.5231197826 1.4008660752
C 0.7191577945 -0.3926952117 0.8991460711
H 5.2171733112 -1.8608527656 -2.0405359704
H 4.9861731031 -2.6816563993 -0.4833467931
H 6.5128249209 -1.8478162059 -0.8294409786
H 5.3108299124 0.3616884473 -0.8521743148
H 5.0812615868 -0.4571442643 0.7009798428
H 1.1144050074 -0.1801937037 -1.2060766546
H 0.9012190053 2.3382625427 0.5256805272
H 0.9326887002 2.3294269461 -1.2297880426
H -3.3581897391 -1.3988361929 1.0266133837
H -5.4140348124 -1.8815762556 -0.3093934718
H -5.2846192312 -0.2339967204 -1.1202159205
H -5.4476541132 0.8996892393 1.0844259362
H -5.5800201628 -0.7255409864 1.9381174002
H -2.7781872238 2.1772765334 -0.7898041690
H 0.9627258183 0.1378281997 1.8315024767
H 1.1423001930 -1.3972340362 0.9731439809
