15
CONF1
C 0.7556392243 1.5371849735 -0.4833442634
Si 0.0233783582 -0.0048880432 0.2968119875
C -1.7348365645 -0.2407867567 -0.3161324529
C 1.0700226559 -1.5062377789 -0.0746753665
O 0.0465366728 0.1200772977 1.9617088483
H 0.7908470440 1.4494274010 -1.5751908814
H 0.1630697655 2.4282468885 -0.2462435718
H 1.7767297889 1.7098809974 -0.1270389452
H -1.7603028628 -0.3703307932 -1.4041000629
H -2.3640021893 0.6238915253 -0.0755765762
H -2.1938162830 -1.1252286325 0.1382623162
H 0.6509953704 -2.4006422204 0.3979291029
H 2.0895111364 -1.3747286222 0.3025456125
H 1.1299850015 -1.6905503854 -1.1525851076
H -0.4437571182 0.8446843490 2.3576293605
