52
CONF127
C -2.3396987094 4.5763618479 -0.0096418568
C -1.5609012187 3.6234771391 0.8992683075
C -0.7944988648 4.4016688692 1.9694136110
C -0.5751657538 2.7799744906 0.0630538505
C 0.2291264687 1.7647651878 0.8616740347
C -0.3960343314 0.8487270603 1.7127676248
C 0.3437566613 -0.0951517098 2.4157122237
C 1.7237984293 -0.1192244306 2.2566610655
C 2.3755932260 0.7710979501 1.4134515756
C 1.6168279722 1.7078100825 0.7171285614
Cl 2.6662541421 -1.3117110452 3.1452974604
C -1.2270888747 1.9922373229 -1.0564358995
O -0.7836144556 1.8714690368 -2.1749524298
O -2.3471042838 1.3512917279 -0.6190815098
C -2.8160969296 0.2632732703 -1.4737939194
C -4.2597344527 0.1898114760 -1.2742361804
N -5.4030937441 0.1154519663 -1.1335458030
C -2.0936487919 -1.0031542882 -1.0799390958
C -0.9824180157 -1.3908532433 -1.8247671193
C -0.2244464936 -2.4760732641 -1.3961613305
C -0.5671599097 -3.1795864211 -0.2427333425
C -1.6843060990 -2.7824403389 0.4852051800
C -2.4503613092 -1.6958925077 0.0774156666
O 0.8228390046 -2.8524008310 -2.2088097072
C 1.9742183828 -3.3653632273 -1.6269308387
C 2.5577347027 -4.4666345144 -2.2427668452
C 3.7582392832 -4.9646741069 -1.7425359045
C 4.3621045192 -4.3702527293 -0.6368646905
C 3.7625230764 -3.2658164354 -0.0331536551
C 2.5660727747 -2.7528671833 -0.5250443811
H -1.6529031913 5.2558187457 -0.5279427000
H -3.0337247347 5.1828324496 0.5799550303
H -2.9231632557 4.0383100223 -0.7643543901
H -2.2694726553 2.9477617385 1.3921041933
H -0.0651189328 5.0748009300 1.5032806135
H -0.2566756062 3.7331892942 2.6483929276
H -1.4850572907 5.0085971899 2.5626484806
H 0.1269698767 3.4591453409 -0.4321144184
H -1.4734265835 0.8602135995 1.8337571235
H -0.1478781033 -0.8022222960 3.0742637941
H 3.4531604251 0.7364320818 1.2990403882
H 2.1185966716 2.4063305887 0.0540847974
H -2.6223991817 0.5172217832 -2.5218583895
H -0.6930561435 -0.8551537639 -2.7221680298
H 0.0265313439 -4.0297124970 0.0752764138
H -1.9591340564 -3.3313607595 1.3799656975
H -3.3125889415 -1.3850974160 0.6591637117
H 2.0719102658 -4.9183664841 -3.1012514329
H 4.2183163149 -5.8246199938 -2.2190509296
H 5.2958321203 -4.7629967496 -0.2481936084
H 4.2304209812 -2.7910707158 0.8232811293
H 2.0991444625 -1.8881117385 -0.0639354404
