27
CONF4
C -2.1578917818 -1.5873003039 -0.3937803351
C -3.5425674925 -1.5905185581 -0.4311117927
C -4.2131640674 -0.3901340491 -0.2286806471
C -3.5375060156 0.8063398187 0.0089907042
C -2.1561991082 0.8019461169 0.0453380691
C -1.4555163191 -0.3989510616 -0.1565770219
N -0.0496907309 -0.5242905993 -0.1430491108
N 0.5643865174 0.5544114330 0.0773980459
C 1.9610130660 0.4566869392 0.0942874545
C 2.6889243127 -0.7271936812 -0.1150804226
C 4.0681129541 -0.7034048594 -0.0760024977
C 4.7436250987 0.5010574212 0.1725101977
C 4.0300724829 1.6829010880 0.3820374955
C 2.6489425257 1.6535371640 0.3416026333
O 6.0989031868 0.5758571175 0.2204044058
N -5.6867008281 -0.3813813397 -0.2664152425
O -6.2553779689 -1.4474246658 -0.4749847904
O -6.2524203306 0.6912717421 -0.0866550691
H -1.5924982338 -2.5000391043 -0.5466674136
H -4.1062670474 -2.4966191515 -0.6125145929
H -4.1051939194 1.7158503864 0.1607254772
H -1.6023400925 1.7144706306 0.2276592513
H 2.1543821829 -1.6500358389 -0.3061634981
H 4.6357349157 -1.6169166964 -0.2377388646
H 4.5740522475 2.6010362624 0.5721605436
H 2.0683571361 2.5561225426 0.5004604686
H 6.4768278099 -0.2972785535 0.0612232526
