34
CONF157
C -4.5446364620 0.0794737107 0.0030826973
C -3.7144548930 -1.0967896668 -0.4550266420
O -2.2773157102 -0.8338405866 -0.2941832595
P -1.4871172918 0.1485666275 -1.2740388176
S -1.9622786458 0.1459234763 -3.1455843532
O -1.4685457290 1.6038313360 -0.6354458259
C -1.1574296357 1.8219975913 0.7923937274
C -1.8454761931 3.0952941762 1.2139495980
O 0.0680730367 -0.3002190921 -0.8805012129
N 0.3745491437 -1.5931421714 -1.3068956825
C 1.5872786123 -1.9238550767 -0.9986364246
C 1.9227131120 -3.2315080909 -1.4883024211
N 2.2326767820 -4.2829335816 -1.8573142050
C 2.6307215028 -1.1838715674 -0.2679496815
C 3.9623926784 -1.3140288096 -0.6863031676
C 4.9709485117 -0.6306789148 -0.0198478210
C 4.6645558004 0.1625423404 1.0834161777
C 3.3451373625 0.2705664361 1.5196033700
C 2.3262476887 -0.3924777710 0.8485209886
H -5.6035348864 -0.1922005411 -0.0516402140
H -4.3079779599 0.3444937787 1.0376104540
H -4.3847268113 0.9535382735 -0.6356990114
H -3.8840960113 -1.9802464355 0.1630421858
H -3.8997166399 -1.3485795894 -1.5037376287
H -0.0691475150 1.8952401491 0.8747289841
H -1.5093271299 0.9604442543 1.3675220184
H -1.5053828674 3.9401592165 0.6092566377
H -1.6032895335 3.2986918348 2.2615521425
H -2.9306324962 3.0010129627 1.1195138511
H 4.2044210882 -1.9377581294 -1.5414097874
H 5.9973609295 -0.7235529524 -0.3586358793
H 5.4544424036 0.6894077503 1.6089798033
H 3.1069318759 0.8727371081 2.3902355718
H 1.3066357190 -0.3182373579 1.2036554396
