65
CONF333
C 3.4555464543 -7.7406480013 0.1080733549
O 4.2185727717 -6.9281267964 0.9916492982
C 3.5831752949 -5.8687463669 1.5775328149
C 4.3645568215 -5.0953167056 2.4399691964
C 3.8071056357 -4.0010635902 3.0820484591
C 2.4678366708 -3.6446473988 2.8905915121
C 1.7059683359 -4.4285602593 2.0279835112
C 2.2442029806 -5.5342503630 1.3717330832
C 1.8940770176 -2.4181176940 3.5453785125
C 2.0333208764 -1.1644856550 2.6644256201
N 1.2597469221 -1.2547235656 1.4290371753
C 1.8031074053 -0.3945271732 0.3812408645
C 1.0609354255 -0.6224752407 -0.9337316275
C -0.4438870384 -0.3948659541 -0.7918859124
C -0.9735577133 -1.2168248738 0.3873632338
C -0.1596889152 -0.9616597823 1.6500259522
N -0.6892699106 1.0392935023 -0.5686701524
C -1.9252633144 1.5550947627 -0.8432722903
N -3.0030595979 0.8712901900 -1.1624230671
C -3.9958293918 1.8297796272 -1.3019463532
C -5.3371369562 1.6800011585 -1.6425126810
C -6.1241175419 2.8253255458 -1.7393029555
C -5.5940914195 4.0987510472 -1.5037747218
C -4.2522985148 4.2721059807 -1.1609522697
C -3.4790126822 3.1257263155 -1.0616534710
N -2.1398595642 2.9236950288 -0.7511123183
C -1.1445388061 3.9111746423 -0.3879698920
C -0.0257339258 4.0159650103 -1.4038388308
C -0.3130583793 4.0116484594 -2.7710821989
C 0.7050774577 4.1048622631 -3.7112062868
C 2.0137347635 4.1994524678 -3.2619530949
C 2.3379167240 4.1990286221 -1.9164573536
C 1.3033056831 4.1034243679 -0.9892130108
F 3.0076906594 4.2885240382 -4.1710000887
H 3.0820709630 -7.1615915582 -0.7471250179
H 2.6097474838 -8.2119555587 0.6263167722
H 4.1362802024 -8.5145675597 -0.2495833441
H 5.4014577955 -5.3735003787 2.5953003129
H 4.4267693632 -3.4103041123 3.7524833935
H 0.6655894022 -4.1699940955 1.8556359121
H 1.6136506164 -6.1176555182 0.7121354608
H 0.8405936899 -2.5825784383 3.7968464657
H 2.4123034060 -2.2223118618 4.4915217121
H 3.0922014057 -1.0576803638 2.3973414270
H 1.7563665073 -0.2663934263 3.2536954242
H 2.8624343122 -0.6413068798 0.2443857837
H 1.7567210900 0.6802327019 0.6668670990
H 1.4745878772 0.0245981034 -1.7186203326
H 1.2201444494 -1.6603032881 -1.2455131493
H -0.9602157023 -0.7072548658 -1.7094808603
H -2.0275250531 -0.9767558073 0.5554783578
H -0.9088590065 -2.2787463817 0.1212243158
H -0.3023376109 0.0889311598 1.9773846892
H -0.5345204789 -1.6005603912 2.4568442189
H 0.0813126189 1.6473372182 -0.8130950222
H -7.1719854749 2.7301702616 -2.0046552481
H -6.2351575878 4.9697141841 -1.5888465440
H -3.8483808300 5.2639694546 -0.9826547166
H -1.6586951253 4.8734500288 -0.2880627034
H -0.7265356846 3.6676818221 0.5983510801
H 0.4998723284 4.1025045295 -4.7756556276
H 3.3755103184 4.2652649699 -1.6098354735
H 1.5390753587 4.0949428261 0.0717674986
H -1.3440915621 3.9221027829 -3.1010944161
H -5.7464862137 0.6929637773 -1.8288888877
