27
CONF1
C -3.8971196421 0.7197254271 -0.4484784248
C -4.5031703708 -0.6120689785 -0.8975165207
O -3.8073273819 -1.2195400795 -1.9863559796
C -2.6659882387 0.6384328305 0.4249106723
C -1.4005794330 -0.0268295741 -0.2009821667
C -0.0559356788 0.2972012154 0.5422116081
C 1.0975231886 -0.7134658280 0.2060789844
C 2.5229024498 -0.1652978706 0.5597292154
C 3.6245029095 -1.2720729600 0.6554334659
F 3.4583785974 -2.0221454207 1.7498475561
F 4.8249327266 -0.6804134189 0.7227986767
F 3.5903100967 -2.0601526192 -0.4283834086
F 2.4817409594 0.4726468314 1.7525088004
F 2.9054159135 0.7085685987 -0.3962892143
F 0.8906546418 -1.8564718080 0.9003480417
F 1.0733570893 -0.9946970844 -1.1172937793
F 0.3523434741 1.5396556474 0.1885822784
F -0.2611819591 0.2664279604 1.8790147640
F -1.5677023916 -1.3736238315 -0.1953687002
F -1.2729333062 0.3992496062 -1.4815553747
F -2.9507254802 -0.0429617528 1.5799139019
F -2.2976578191 1.9136746228 0.7934610302
H -3.6756506301 1.3514538687 -1.3142530963
H -4.6305340343 1.2532040243 0.1683184245
H -4.4909077247 -1.3363152297 -0.0776481417
H -5.5517538021 -0.4265327951 -1.1631311319
H -3.9246303387 -0.6557460846 -2.7615591182
