54
CONF14
C 2.9634202087 -2.8617366304 0.9030377142
C 1.6376622992 -2.2977739768 0.4148997804
C 1.5331232067 -0.8013428213 0.5815418907
O 2.4022687426 -0.0936050732 1.0505586516
O 0.3340552188 -0.3811275356 0.1362060262
C -0.1000946202 1.0245042012 0.1721558319
C -0.1426176196 1.4853579768 1.6514401395
C -0.7954293557 0.4918252531 2.5811459910
C -0.0125226412 -0.3588484791 3.3687811470
C -0.5997966692 -1.3002929400 4.2112558728
C -1.9866495206 -1.4046389971 4.2843654734
C -2.7784570671 -0.5507223366 3.5189257822
C -2.1880768953 0.3892142581 2.6778804526
C -1.4871336708 0.9973012257 -0.4672471661
C -2.3514896777 2.0907173072 -0.3307903534
C -3.5966359649 2.1037113888 -0.9520604719
C -4.0091863383 1.0210032212 -1.7240676882
C -3.1597023886 -0.0714301398 -1.8674469477
C -1.9113489799 -0.0826456441 -1.2486289596
C 0.8917806558 1.8814560959 -0.6711113947
C 0.5653317684 3.3755948930 -0.6802401949
C 0.9923735038 1.3521692215 -2.1101846100
N 2.1653126621 1.8737443137 -2.8259392336
C 2.0134428227 1.6261866339 -4.2617015520
C 3.3960125431 1.2353351460 -2.3516295007
H 3.8017180055 -2.4252667808 0.3532720530
H 2.9844663910 -3.9451417568 0.7592880157
H 0.7909770914 -2.7447916387 0.9503325340
H 1.4716730872 -2.5228351310 -0.6458542977
H 0.8827978456 1.6758014519 1.9768990564
H -0.6778507167 2.4358395063 1.6963736704
H 1.0696554764 -0.2776922171 3.3258122920
H 0.0285326631 -1.9495482982 4.8137799481
H -2.4470957892 -2.1367904890 4.9405794525
H -3.8610053701 -0.6118164521 3.5806933719
H -2.8162559572 1.0542619800 2.0940331897
H -2.0690813899 2.9438403960 0.2750716312
H -4.2472009790 2.9633996524 -0.8238956906
H -4.9824354145 1.0283939145 -2.2047693112
H -3.4659755515 -0.9254315172 -2.4641352865
H -1.2666140384 -0.9428068640 -1.3763762247
H 1.8572698608 1.7583177726 -0.1762631108
H 0.0950885132 1.6679451700 -2.6577000858
H 0.9999763781 0.2453990540 -2.1181688888
H 1.9241291467 0.5478223844 -4.4987658000
H 2.8831071915 2.0198243685 -4.7983264883
H 1.1176464232 2.1335017504 -4.6347762839
H 4.2498709965 1.6212380940 -2.9177435900
H 3.5663992056 1.4555438811 -1.2942829003
H 3.3671689212 0.1340318353 -2.4731683800
H 3.1099695232 -2.6529250301 1.9663232234
H -0.3733538879 3.5798747894 -1.2040983322
H 0.5024226858 3.7948130675 0.3277425241
H 1.3629644369 3.9006983972 -1.2119923156
