48
CONF9
C -2.2508462492 -3.4364419051 -2.0128453533
O -3.4189705858 -2.6226310963 -1.9576098449
C -3.4294774818 -1.6070765552 -1.0497358631
C -4.6162845404 -0.8348075600 -1.0476161989
C -4.7521509329 0.2042641934 -0.1713607190
C -3.7161126965 0.5352226083 0.7385873230
N -3.9308344284 1.5814042066 1.5781949887
C -2.9677692922 1.8892366955 2.4216530031
C -1.7419981641 1.2038429371 2.4855266937
C -1.4863694729 0.1456855245 1.6408299774
C -0.1276794717 -0.5129086952 1.6985639486
O -0.1877183939 -1.9473464758 1.7638186691
C 0.7448111345 -0.1888437865 0.4780805680
C 2.1238936702 -0.8953663521 0.5340783396
C 3.1591050260 0.0581965535 -0.0837605774
C 3.3473456365 1.2346860629 0.8831497767
C 1.9371192620 1.7925602002 1.2219274461
N 0.9110199766 1.2664192230 0.3010662722
C 1.3778999004 1.4938344533 -1.0746688697
C 2.5921731529 0.5718507053 -1.4319736229
C 3.5934570377 1.2826933329 -2.2795605553
C 3.9277049830 0.9352704987 -3.5207547960
C -2.5101030390 -0.2377426435 0.7261600831
C -2.3972968328 -1.3227853765 -0.1812993509
H -1.3650340363 -2.8414152613 -2.2717017160
H -2.0773706267 -3.9494111569 -1.0581819611
H -2.4372417001 -4.1730133084 -2.7953119505
H -5.4024126089 -1.0967621322 -1.7477091600
H -5.6538576762 0.8063982109 -0.1438716818
H -3.1545825820 2.7269611300 3.0929722921
H -0.9864693737 1.5265591562 3.1963623097
H 0.3828832470 -0.1364034864 2.5997739426
H -0.8204883034 -2.1789565381 2.4533265534
H 0.1944059351 -0.5373656447 -0.4041980789
H 2.0901061253 -1.8497034636 -0.0003242588
H 2.4005857076 -1.1218074021 1.5717686317
H 4.1081506535 -0.4600017112 -0.2542438545
H 3.9803015843 2.0078554345 0.4348720539
H 3.8593258952 0.8916861711 1.7890194369
H 1.9163969296 2.8861205301 1.1554818417
H 1.6512015457 1.5363495737 2.2471884645
H 1.6635569861 2.5492992943 -1.1643204840
H 0.5505986226 1.3210274080 -1.7726221918
H 2.2316340109 -0.2995195915 -1.9949039438
H 4.0600164141 2.1652170867 -1.8390289248
H 4.6526936156 1.5031049744 -4.0947301624
H 3.4827467632 0.0689579299 -4.0040471670
H -1.5080668188 -1.9343944390 -0.1515814588
