39
CONF56
C 3.8662423053 -0.9213125066 -2.6946418217
C 3.3538682709 -0.4187617454 -1.3462899246
C 1.8556266547 -0.1181968753 -1.3822830483
C 1.3205125471 0.3664176087 -0.0443633946
C 1.1180312815 -0.7420043098 0.9910316925
O -0.2389005721 -1.1544503486 0.7485816013
C -0.9345050512 0.0467111600 0.4896884390
C -2.1481848551 -0.2206305431 -0.4164845181
N -1.7647159231 -0.8276535609 -1.6751345291
C -1.3834542325 -0.2147729889 -2.8132930001
N -1.0489152315 -1.1141445841 -3.7304273930
C -1.2427314541 -2.2942000015 -3.0747910561
N -1.6752668850 -2.1736576342 -1.8264954364
O -0.0313221993 0.8790926596 -0.2205104524
C -1.3792949356 0.7335034684 1.7903700289
C -2.0915836801 0.0888172474 2.8081150410
Cl -2.5648715767 -1.6027346991 2.6929593732
C -2.4684800695 0.7428043004 3.9770580818
C -2.1280928226 2.0799506755 4.1249532976
Cl -2.5982353644 2.9123972982 5.5965379203
C -1.4303953799 2.7663462441 3.1418410870
C -1.0689055137 2.0811022615 1.9891295801
H 3.3519337824 -1.8438264150 -2.9857614373
H 3.6898862618 -0.1782456667 -3.4800609196
H 4.9400684880 -1.1291430998 -2.6604718813
H 3.8964613308 0.4903994434 -1.0562787005
H 3.5663047460 -1.1680589341 -0.5730047285
H 1.2960249794 -1.0142374570 -1.6848193652
H 1.6558330590 0.6554289839 -2.1340653607
H 1.9399235727 1.1798722583 0.3523029566
H 1.2261722180 -0.3688953970 2.0180964521
H 1.7625440046 -1.6089060439 0.8376063236
H -2.8647317041 -0.8738282842 0.0828899055
H -2.6272635476 0.7392808656 -0.6263587511
H -1.3754303282 0.8613666821 -2.9234026981
H -1.0702556082 -3.2634593497 -3.5258078910
H -3.0138209306 0.2167172530 4.7509003184
H -1.1711842631 3.8107033304 3.2692121017
H -0.5188911887 2.6002095085 1.2134719960
