39
CONF38
C 2.5080774703 1.8220920168 -2.1940581795
C 1.0189561608 2.1367706830 -2.0278495710
C 0.7112954132 1.6686301296 -0.5816693473
O 1.8273233041 0.8182631416 -0.2114460614
C 2.6591030787 0.5860825922 -1.3382472897
O 2.2045743274 -0.5309112688 -2.1016032272
C 2.4133701136 -1.7703727526 -1.4481790161
C 1.6356473248 -2.8173386952 -2.2108179099
F 2.0246276893 -2.9079395073 -3.5044697476
F 1.8156283861 -4.0354303718 -1.6476942974
F 0.3052938088 -2.5662946778 -2.2166350637
C 0.7340858106 2.8784454746 0.3816039645
N 0.5301021400 2.5036801842 1.7708559527
C -0.6376391531 2.3974306919 2.4377852626
N -0.4258474014 1.9548890426 3.6714433282
C 0.9281054742 1.7982316653 3.7022727449
N 1.5518697986 2.1160574677 2.5748785139
C -0.5850657313 0.8820400467 -0.4174187076
C -1.8336813376 1.3203835267 -0.8741114878
C -3.0026746874 0.5915881097 -0.6775470860
C -2.9248066492 -0.6057448546 0.0178544723
C -1.7197644883 -1.0712086883 0.5221762834
C -0.5742484987 -0.3189643237 0.2997409866
Cl -4.3923821992 -1.5351391820 0.2709718917
Cl -2.0259714634 2.8568968113 -1.7132828458
H 3.1291176434 2.6177124905 -1.7727610411
H 2.8001281898 1.6538504726 -3.2317919846
H 0.4215798552 1.5675004290 -2.7429660450
H 3.6660888033 0.3886579103 -0.9517743993
H 2.0396933561 -1.7672295380 -0.4169412021
H 3.4738158639 -2.0596816741 -1.4511951287
H 1.7000963750 3.3828093919 0.2976681629
H -0.0584285598 3.5787087452 0.1067195622
H -1.5906419192 2.6585627278 1.9950330017
H 1.4698360929 1.4511695220 4.5733030391
H -3.9487491084 0.9581146075 -1.0564692898
H -1.6698052001 -1.9988039648 1.0801478693
H 0.3670566394 -0.6689473865 0.7027121591
H 0.8019650844 3.1967752261 -2.1655322907
