36
CONF4
C 0.5070745612 2.6820349239 -0.5781027273
C -0.8760027071 2.4940243531 -1.1655945221
S -1.3468142785 3.2750469212 -2.5467968170
N -1.6455554994 1.5967836599 -0.4619846566
C -1.2189220348 1.0186883515 0.7724945821
C 0.0263300957 0.3785145227 0.8935273633
C 0.3560669807 -0.2503798619 2.0989468837
C -0.5284986751 -0.2267524881 3.1616774218
C -1.7575570294 0.4182364845 3.0563475626
C -2.0930314448 1.0342626108 1.8627099579
Cl -0.0956085218 -1.0108103788 4.6631041850
C 1.0347026490 0.4227372533 -0.1880501183
N 1.2935303477 1.4844642273 -0.8618380122
C 1.8697016517 -0.7730754879 -0.4473032185
C 3.2215496075 -0.6269251607 -0.7861726052
C 4.0207525650 -1.7303160787 -1.0435420378
C 3.4799593273 -3.0131978364 -0.9759103861
C 2.1389457775 -3.1900336414 -0.6568366990
C 1.3627521505 -2.0726557516 -0.3998059433
F 0.0547670971 -2.2639154018 -0.1254229441
C -2.9443135371 1.1845285780 -0.9805136435
C -2.9048839468 -0.2332336541 -1.5334782426
F -4.0776794059 -0.5040425601 -2.1511620398
F -1.9113618414 -0.4004411150 -2.4243741722
F -2.7388772945 -1.1597196763 -0.5607242775
H 0.4251035979 2.8781258924 0.5049014963
H 0.9751585865 3.5358625954 -1.0647403611
H 1.3123796508 -0.7525000904 2.1931811712
H -2.4370227439 0.4437222267 3.8998363564
H -3.0454540889 1.5462300211 1.7866664172
H 3.6226376891 0.3789145568 -0.8396976687
H 5.0665992747 -1.5928496225 -1.2949212103
H 4.1003371570 -3.8802078622 -1.1768683756
H 1.6822526436 -4.1722499549 -0.6154108158
H -3.2077152188 1.8596065522 -1.8003367988
H -3.7213043484 1.2215233896 -0.2138046967
