42
CONF9
C 0.5463434485 3.0632362142 4.6596951401
C 1.5025925623 3.4145204702 3.7093621796
C 1.4992902341 2.8091873049 2.4603904519
C 0.5431330917 1.8411623956 2.1382986058
C -0.4142774934 1.5003561892 3.0916188176
C -0.4120395309 2.1079658552 4.3456226087
C 0.5728269849 1.2271264076 0.7531752065
C -0.5481317167 0.2645752995 0.4356768430
C -1.5608752837 0.6060304074 -0.4610622003
C -2.5400096256 -0.3123438821 -0.8214857893
C -2.4975660727 -1.5881616279 -0.2731189593
C -1.5211668682 -1.9484487091 0.6489620391
C -0.5521346189 -1.0166351704 0.9973185460
Cl -3.6884800758 -2.7740862601 -0.7696538953
C 1.9046888932 0.5071228956 0.4542230818
O 2.7884320960 0.3649442297 1.2592611666
C 2.0555138290 -0.0907751688 -0.9568387653
C 1.2163315974 0.5196364130 -2.0823111274
O 1.1681542638 1.6977864271 -2.3727720378
C 0.4806935829 -0.5782322736 -2.7501315306
C -0.3894550098 -0.5058466782 -3.8317550423
C -1.0109999159 -1.6799103779 -4.2420000781
C -0.7677519408 -2.8945667029 -3.5853729690
C 0.1109495214 -2.9644912569 -2.5098241305
C 0.7324779406 -1.7890479898 -2.1049355249
C 1.6966020910 -1.5981656378 -0.9934027961
O 2.1373001927 -2.4552242248 -0.2661295062
H 0.5482836127 3.5356167853 5.6366602269
H 2.2545528206 4.1612545299 3.9435300929
H 2.2506264348 3.0841968470 1.7262863280
H -1.1744799449 0.7635859869 2.8560503002
H -1.1665107825 1.8322192768 5.0755733457
H 0.5244614042 2.0422792446 0.0173281125
H -1.5692003604 1.5958605961 -0.9082186818
H -3.3139355819 -0.0488535601 -1.5328035270
H -1.5065955826 -2.9470874621 1.0694667009
H 0.2279556685 -1.2985205670 1.6993424514
H 3.1207817189 0.0046775060 -1.1998543975
H -0.5769586370 0.4431818708 -4.3231255828
H -1.7012112079 -1.6606533357 -5.0793077016
H -1.2775001249 -3.7908886725 -3.9231745465
H 0.3072878929 -3.8965316058 -1.9905635932
