53
CONF191
C -1.0434385407 5.0324957566 -0.7956885373
C 0.2733757092 4.3636547667 -0.4780078417
O -0.0197445785 2.9814178057 -0.1386674681
C 1.0445936357 2.2014526041 0.1694081124
O 2.1939598468 2.6339608789 0.1621504567
C 0.6373558780 0.8473427730 0.5188702612
C 1.5782218029 -0.0602754171 0.9044611558
N 1.1961095326 -1.2774368248 1.3884116356
C -0.1034231700 -1.6471692288 1.6312025699
C -1.1145589533 -0.8126905514 1.2528789184
C -0.8419986592 0.4828536100 0.4958038872
C -1.4258410816 0.4601916541 -0.9216525246
C -2.4283559041 1.3845625130 -1.2456472210
C -3.0158686653 1.4353081537 -2.5014779039
C -2.6088069108 0.5428552445 -3.4911708840
C -1.6194933326 -0.3897762899 -3.2088255012
C -1.0471734035 -0.4185689343 -1.9382507577
Cl 0.2002266978 -1.6404904204 -1.6711664986
C -2.4976853999 -1.1529388999 1.5706209344
O -2.9147175319 -2.2222191110 1.9999759408
O -3.3310476054 -0.1061022682 1.3294117095
C -4.7304614375 -0.3503250135 1.5798728351
C -0.2417749718 -2.9678245481 2.3237935867
C 3.0861959209 0.1452561352 0.9059508053
O 3.7866454769 -1.0727547784 1.1317769728
C 3.9941976564 -1.8230098697 -0.0801744231
C 4.6174282059 -3.1597563982 0.2808266371
N 3.7865133792 -4.0463766823 1.1078019571
H -1.5333910744 4.5469197046 -1.6446111307
H -0.8629328133 6.0803096011 -1.0527292357
H -1.7171187325 4.9992170988 0.0655461558
H 0.7769851238 4.8355313870 0.3722029183
H 0.9553297024 4.3778340107 -1.3343821412
H 1.9455308280 -1.8924263547 1.6820695144
H -1.3866960557 1.2855327520 1.0019914690
H -2.7422060260 2.0817926692 -0.4753112493
H -3.7883870609 2.1689121742 -2.7086779582
H -3.0560896941 0.5675662978 -4.4795980619
H -1.2889759590 -1.0938850422 -3.9643866775
H -5.2385650720 0.5737742019 1.3042778526
H -5.0894776876 -1.1809626915 0.9664760749
H -4.8980165009 -0.5770605268 2.6361604790
H -0.7445292792 -3.6898401183 1.6749880079
H 0.7412118068 -3.3601045709 2.5969237340
H -0.8529816743 -2.8737160802 3.2231825563
H 3.4005571612 0.6112598377 -0.0327829533
H 3.3528915487 0.8288963660 1.7191484165
H 3.0336917896 -1.9792571064 -0.5966701024
H 4.6581950660 -1.2551761902 -0.7494043198
H 4.8608753199 -3.6717531898 -0.6585526388
H 5.5650869995 -2.9835690799 0.8042646210
H 2.8699403720 -4.1494188789 0.6797863551
H 3.6286382154 -3.6140113325 2.0127875934
