43
CONF3
C 2.9447614580 0.9784611265 4.1703566489
C 1.4565131870 0.9485463292 3.9123049399
O 1.2873703716 0.7107107876 2.4915906151
N -0.0689627645 0.6930484763 2.1919552630
C -0.3033715184 0.4795123861 0.9499641184
C -1.7017834147 0.4525483182 0.4914744036
C -2.1767118650 -0.6901843799 -0.1908702970
C -3.5190362989 -0.8072360238 -0.5386861156
C -4.4000678057 0.2151526256 -0.2012149978
C -3.9431356603 1.3514695611 0.4417770806
C -2.5882263070 1.5056992329 0.7804848615
O -2.2357951701 2.6605180461 1.3899202797
C -1.0324336294 3.3479072770 0.9701377829
Cl -5.0722270420 2.6435876131 0.8111888230
O -1.2408523769 -1.6388649943 -0.4429224283
C -1.6354038089 -2.7957598703 -1.1987013265
O 0.7383576199 0.1626665898 0.1056013521
C 0.6256586250 0.3394345248 -1.2587145885
O -0.1244467469 1.1483337757 -1.7544558142
C 1.5519164340 -0.5410441252 -1.9938738049
C 2.2789769076 -1.5546704945 -1.3573153355
C 3.1158893194 -2.3746699640 -2.1041711347
C 3.2336754593 -2.1875608540 -3.4804610600
C 2.5105628233 -1.1781941623 -4.1158733311
C 1.6702625727 -0.3569090262 -3.3771805586
H 3.1208431604 1.1534108827 5.2354365486
H 3.4081097357 0.0264030942 3.8958707474
H 3.4237876348 1.7827592058 3.6046652657
H 0.9655200353 0.1411610793 4.4684661935
H 0.9805827166 1.9020455903 4.1706201552
H -3.8943519700 -1.6827682446 -1.0515048472
H -5.4494315968 0.1303205005 -0.4606743700
H -0.6940654747 2.9805030639 -0.0024165097
H -0.2446953191 3.2164015117 1.7155374346
H -1.3014550652 4.4038191780 0.8940220742
H -2.3854455523 -3.3792631644 -0.6542208854
H -2.0251517854 -2.5027155800 -2.1794873678
H -0.7257752156 -3.3836816971 -1.3214953452
H 2.1804847364 -1.7043160898 -0.2889750315
H 3.6762387856 -3.1632289671 -1.6126793635
H 3.8890277336 -2.8303842804 -4.0597214002
H 2.6032635475 -1.0337308987 -5.1872487242
H 1.1010233867 0.4307626275 -3.8585098395
