110
CONF21
C -2.8916570661 -0.1666719172 -1.2652149855
N -3.7165394357 -0.6738658006 -2.3838246021
C -3.0756382475 -1.9148167148 -2.8721325236
C -2.2255892360 -2.4125472893 -1.6872970726
C -2.5487389020 -1.4582718194 -0.5091370276
C -1.4062514360 -1.3203201646 0.4598481841
C -0.1096939331 -0.8977209406 0.2371142739
C 0.8355635192 -0.8971471085 1.2688560615
C 0.4094656962 -1.3248224633 2.5446900578
O 1.3493586249 -1.2632735071 3.5365548443
C 1.0318029328 -1.8050862687 4.8240651664
C -0.8889702129 -1.7850011294 2.7822258903
C -1.7949817097 -1.7646659482 1.7207927195
N -3.1245719618 -2.1366080205 1.7477359896
C -3.5275790861 -3.2464110892 2.6037829354
C -3.7185337233 -1.9983270270 0.4056023897
C -4.9917637374 -1.0878305581 0.4029278090
O -5.7201041690 -1.2720939164 -0.8057822134
C -4.6115926943 0.3846590306 0.5973459107
O -5.7931923172 1.1817235707 0.6908382714
C -3.6114650548 0.9467465774 -0.4821398341
C -2.5913989865 1.8240527209 0.3009632537
C -1.5753335197 2.6000474417 -0.5310826278
C -4.3217986645 1.8442799323 -1.4707380083
C -4.4486870026 1.5960796169 -2.7737086743
C -3.9763775876 0.3274805031 -3.4091510793
C -5.9231218917 -1.4982142531 1.5673321491
N -6.9103994698 -2.3470962627 1.2155463085
O -5.7425660892 -1.1140866928 2.7220299203
C 2.2681069951 -0.3852137825 1.0258344832
C 2.6900110495 -0.6834492435 -0.4477907680
C 4.1855946388 -0.6206097600 -0.7849568831
C 4.7468184533 0.8034318255 -0.7039215037
N 4.1579602234 1.5889421525 -1.7611748936
C 4.5799855327 1.1847420368 -3.0758552529
C 4.0956518108 -0.2532862385 -3.3799997935
O 4.8526669990 -0.7906374568 -4.4935081988
C 2.6080836865 -0.2221435915 -3.7663465261
C 1.9193233823 -1.5777457848 -3.8979398965
C 4.4741716102 -1.1673599094 -2.2001315390
C 3.4448591049 2.8082862822 -1.4816979423
C 2.0809143460 2.5859543876 -0.7816361326
C 2.1558166586 2.2729915792 0.6848310528
C 2.2819316213 1.0887413317 1.4046706518
N 2.2843095403 1.3945054816 2.7570983443
C 2.1955980047 2.7441735640 2.9453029141
C 2.1805465912 3.4975353859 4.1189405656
C 2.0781597459 4.8772460538 3.9895683402
C 1.9941877625 5.4855805454 2.7226788602
C 2.0117616861 4.7285333515 1.5584486047
C 2.1146965953 3.3323724309 1.6568642266
C 3.2893532084 -1.1812771721 1.8596810870
O 4.2012117856 -0.7120867785 2.5076985917
O 3.1174524726 -2.5000673108 1.6697822476
C 4.0564236470 -3.3531656433 2.3647162940
H -1.9493340885 0.2431691747 -1.6680868776
H -2.4411133171 -1.7064356907 -3.7461705604
H -3.8472994198 -2.6301022998 -3.1782317688
H -1.1614729897 -2.3228564134 -1.9251374619
H -2.4210411297 -3.4546403948 -1.4241625935
H 0.1768739032 -0.5736970873 -0.7584535361
H 0.7663144065 -2.8654335127 4.7460188430
H 1.9388630141 -1.6937867910 5.4192282221
H 0.2123781154 -1.2488608649 5.2932438426
H -1.1921036898 -2.1263087939 3.7631420009
H -2.8924508335 -4.1313228472 2.4381719670
H -3.4680841022 -2.9611771858 3.6588645290
H -4.5636542787 -3.5160295784 2.3963703011
H -4.0523153662 -2.9802682242 0.0401753723
H -5.0557825598 -1.0697067117 -1.5506327261
H -4.1350076271 0.4571086831 1.5793380714
H -6.2906078569 1.0294721488 -0.1264257310
H -3.1837304768 2.5306991566 0.8969824956
H -2.0654104407 1.1784185975 1.0139038658
H -2.0643838586 3.2742832831 -1.2413348689
H -0.9128489250 1.9373389033 -1.0951582648
H -0.9409209221 3.2022995914 0.1273966845
H -4.6894774661 2.7862501611 -1.0709366460
H -4.9092980368 2.3306285360 -3.4295414262
H -3.0692034056 0.5227549222 -4.0156298933
H -4.7367771973 -0.0571635278 -4.1021560760
H -7.5844468566 -2.6328038543 1.9084820169
H -7.0750370116 -2.5443007856 0.2410718901
H 2.1559492247 -0.0008249051 -1.1036034094
H 2.3307723126 -1.6926905248 -0.6655951390
H 4.7422718374 -1.2640276849 -0.0898426762
H 5.8486158595 0.7544342550 -0.8143321932
H 4.5328068006 1.2577115183 0.2663813402
H 4.1814452143 1.8725336939 -3.8323318949
H 5.6852434668 1.1840830405 -3.1688575078
H 4.5849510223 -0.3069592613 -5.2861280712
H 2.0670228668 0.4078858314 -3.0528854111
H 2.5499385490 0.3097067310 -4.7276974638
H 0.9242635880 -1.4566736861 -4.3381906898
H 1.7915994205 -2.0644435402 -2.9266110217
H 2.4927312817 -2.2514209499 -4.5430437232
H 5.5604583705 -1.3086548230 -2.2758798567
H 4.0191759705 -2.1553576483 -2.3345453674
H 4.0385234604 3.5065620610 -0.8620023361
H 3.2562810942 3.3127758807 -2.4364362356
H 1.5159916425 1.8345255403 -1.3392687861
H 1.5110195024 3.5186475846 -0.8786345135
H 2.3747932194 0.7050979899 3.4860266122
H 2.2452115755 3.0235174847 5.0936848058
H 2.0628014227 5.4968070546 4.8809383774
H 1.9157161578 6.5665785048 2.6582119451
H 1.9506467911 5.2153860042 0.5892393988
H 5.0770063962 -3.1415074737 2.0359071237
H 3.9755274173 -3.1961421055 3.4436382378
H 3.7713666221 -4.3712623842 2.1023267341
