54
CONF342
C -6.0366354866 1.8487498673 0.1027482546
C -4.5168697998 1.7583768462 0.1473568332
C -3.8897854771 1.0996856996 -1.1386932195
N -2.6558450028 0.4783587750 -0.6899318512
C -2.3782804546 0.3991394391 0.7531901621
S -4.0049061159 0.6308934036 1.5595794607
C -1.8105304162 -1.0363921276 0.5120442263
C -2.0936598917 -0.7520814646 -0.9830722857
O -1.9622690335 -1.3550948770 -2.0231153901
N -0.4913096866 -1.3847222673 0.9396898815
C 0.5988793779 -0.7315900725 0.4748465305
O 0.5343767206 0.1559660671 -0.3727086266
C 1.9251179077 -1.1416629727 1.1327278691
C 2.0854794359 -0.4306398788 2.4586964280
C 2.3456111489 -1.1701413522 3.6130554843
C 2.4828580836 -0.5294655016 4.8425367210
C 2.3566737059 0.8545520008 4.9259589634
C 2.0936447286 1.5963364589 3.7751152411
C 1.9578313829 0.9581825204 2.5464593343
C 3.0388556053 -0.8295991764 0.1460958068
O 3.8486784140 0.0574758314 0.2319671273
O 2.9814681084 -1.7173343219 -0.8827524211
C 3.8949192242 -1.5281549393 -1.9375767556
C 5.1153204175 -2.1836060966 -1.8923088423
C 5.9878210330 -2.0373362512 -2.9686779233
C 5.6312068848 -1.2475633479 -4.0600727244
C 4.3974555003 -0.5995576746 -4.0799377145
C 3.5152856784 -0.7364759113 -3.0104951890
C -4.8495870481 0.1262131819 -1.8145399105
O -5.5171878153 0.4332434472 -2.7783509631
O -4.9118374711 -1.0654983382 -1.2043888937
C -3.9012738030 3.1461878585 0.3356054279
H -6.5087299076 0.8647746842 0.0352139645
H -6.3416261846 2.4484267758 -0.7612391519
H -6.4009301358 2.3472393271 1.0049927053
H -3.7062882258 1.8970836928 -1.8666339089
H -1.6374197156 1.1237073879 1.1028315382
H -2.5178243274 -1.7942562196 0.8606388740
H -0.3833163930 -2.0997723273 1.6445031393
H 1.9212560417 -2.2249475304 1.2951160999
H 2.4424828968 -2.2502328156 3.5490181035
H 2.6867574408 -1.1139532573 5.7342419644
H 2.4614694940 1.3545297972 5.8837278601
H 1.9926619164 2.6755476579 3.8347450727
H 1.7524450191 1.5395921871 1.6530242209
H 5.3719010965 -2.7935135111 -1.0324608065
H 6.9475979667 -2.5436233234 -2.9517364874
H 6.3142031518 -1.1381762680 -4.8961344501
H 4.1166736526 0.0146371756 -4.9294629246
H 2.5491142354 -0.2426405284 -3.0035464575
H -5.5609201999 -1.6190448654 -1.6736732561
H -4.2535313443 3.5846338398 1.2722989066
H -4.2090113219 3.7941737889 -0.4927734432
H -2.8084717153 3.1093685016 0.3545418835
