82
CONF29
C -5.3348744645 -2.3420985239 -2.2604247276
C -4.3690937722 -1.2513133303 -2.6327770326
C -3.7306328126 -1.2570645352 -3.8063954766
C -4.1174061085 -0.1618172700 -1.6222304285
C -5.3489000107 0.4458206817 -0.9302924921
C -4.7524595626 1.1238435834 0.3049150777
C -3.7208358352 0.1043539493 0.8373694156
C -3.2124801878 -0.6378432969 -0.4442534553
C -1.7040433730 -0.4719364794 -0.7150973195
C -1.3174941915 0.9593205081 -1.1775367438
C -0.0446138126 1.4982441611 -0.5301694567
C 1.0693290005 0.4558882940 -0.6071746111
C 2.5002752769 1.0913430951 -0.3402871342
C 2.4963178923 2.1641386031 0.7721562674
C 3.8857880835 2.7553259884 1.0329948319
C 4.9349440919 1.7096389791 1.3945582207
C 4.9796960378 0.5355887411 0.3796473211
C 3.5418357257 -0.0029319297 0.0474576005
C 3.0284854509 -0.9136878072 1.2014821331
C 1.5219960551 -0.9032315239 1.4568731682
C 0.6891699916 -0.8479065402 0.1765598358
C -0.8718083637 -0.9443401791 0.5097468746
C -1.3077539161 -0.1222519260 1.7749349897
C -2.5612377999 0.7576403742 1.5999297971
C -1.2071885504 -2.4249691485 0.7975256408
C 1.0959139101 -2.0438054478 -0.7142990598
C 5.7380568575 1.0298259181 -0.8721897794
C 5.8583320600 -0.6051799848 0.9310786821
O 4.6356905709 1.3057779836 2.7439088736
C 2.8451381840 1.7610025984 -1.6915476083
C -4.4544238057 -0.9088230803 1.7412758151
O -5.1163267597 -0.3210420822 2.8624924529
H -5.2822074467 -3.1738608772 -2.9664851622
H -6.3643918938 -1.9654761819 -2.2561180004
H -5.1374892284 -2.7302664594 -1.2541854963
H -3.0491627170 -0.4559617212 -4.0789125049
H -3.8708122308 -2.0561312890 -4.5284044919
H -3.6055874655 0.6542828662 -2.1433235986
H -5.8942520641 1.1341938599 -1.5836887649
H -6.0516423439 -0.3373547698 -0.6251441453
H -4.2419924428 2.0488785835 0.0070626058
H -5.4960606461 1.3845509434 1.0637799602
H -3.3930167774 -1.7116790953 -0.3126059805
H -1.4728736880 -1.1579421108 -1.5403260923
H -1.1648909665 0.9481389009 -2.2644683461
H -2.1372275233 1.6624936752 -1.0018005725
H -0.2251373827 1.7927322810 0.5074164917
H 0.2436725421 2.4177024965 -1.0511552705
H 1.1050513339 0.1525106405 -1.6644095172
H 2.1209784630 1.7401385922 1.7082717318
H 1.8191915037 2.9817360123 0.5027299202
H 4.2313164899 3.3204317994 0.1620955707
H 3.8319122921 3.4714785920 1.8599772280
H 5.9298865710 2.1892474340 1.3849483582
H 3.6713176775 -0.6322275012 -0.8444391948
H 3.3591840498 -1.9384878253 0.9989320753
H 3.4991939814 -0.6114101921 2.1366076143
H 1.2843835435 -0.0469059606 2.0902224223
H 1.2621897286 -1.7902160505 2.0478696362
H -1.4679229991 -0.8233929537 2.6038433102
H -0.5073640022 0.5363441288 2.1166683189
H -2.9024655490 1.0905533451 2.5900642170
H -2.2863885112 1.6815023243 1.0840202126
H -0.4998286267 -2.8543045397 1.5137988534
H -1.1916781969 -3.0399932252 -0.1065415150
H -2.1976511399 -2.5274791068 1.2408211222
H 0.4273919330 -2.1450827798 -1.5750769299
H 1.0966702921 -2.9904289721 -0.1673856126
H 2.1021552502 -1.8969868417 -1.1109214491
H 6.8057851506 1.1159552542 -0.6434639439
H 5.4110023958 2.0022115688 -1.2357884318
H 5.6320286607 0.3137210628 -1.6934109782
H 6.8602146255 -0.2241322889 1.1644660604
H 5.9770760116 -1.3868813414 0.1719806252
H 5.4592636414 -1.0841671324 1.8266223918
H 5.3579850356 0.7491464785 3.0535937497
H 1.9561278609 2.2414687743 -2.1102832817
H 3.1860352382 1.0154289564 -2.4174223802
H 3.6074668705 2.5347412017 -1.6222495030
H -5.2440034120 -1.4085468899 1.1689407978
H -3.7570030591 -1.6879323574 2.0796253097
H -4.4458284911 -0.0398514066 3.4934217227
