47
CONF68
C -2.5039822605 -4.4782081456 -0.9524661019
C -2.8357675940 -3.1045269371 -0.3534824834
C -4.2414876347 -2.7017680939 -0.8061194660
C -1.7261846137 -2.1025055024 -0.7304682807
C -0.3434917080 -2.5114719400 -0.1431551711
C 0.2165368863 -1.2726731577 0.5647721086
C -0.4890125792 -0.0846640495 -0.0919794404
C -0.3463210003 1.2063821963 0.7320193996
C 1.0983981987 1.6093960488 0.8779786314
C 1.8059298167 1.3757048741 2.0589884776
C 3.1507130761 1.7187097667 2.1782723623
C 3.7876339732 2.3049927705 1.0928917783
Cl 5.4903390420 2.7468382391 1.2285938550
C 3.1154674264 2.5580087285 -0.0970716580
C 1.7727947653 2.2067181282 -0.1915349552
C -1.9366470318 -0.6157259394 -0.3035323264
O -2.6641772251 -0.6017065620 0.9295181557
C -2.6973874173 0.1328839804 -1.4149047465
N -2.8597368794 1.5600219565 -1.1607848837
C -2.3392749374 2.6057748358 -1.8291716118
N -2.6723969390 3.7470705677 -1.2326531346
C -3.4113159783 3.3263534077 -0.1721530912
N -3.5572936807 2.0072640058 -0.0869196091
H -3.2522245421 -5.2181127020 -0.6496816365
H -2.5115512156 -4.4229938668 -2.0482784166
H -1.5225931451 -4.8469353528 -0.6415631741
H -2.8399541706 -3.1932343669 0.7411699514
H -4.9509633126 -3.5019700213 -0.5685976117
H -4.5866280803 -1.7921313844 -0.3103667420
H -4.2728668707 -2.5481270778 -1.8922344953
H -1.6535337337 -2.1033699415 -1.8272907112
H -0.4440178259 -3.3475887808 0.5551982956
H 0.3274699750 -2.8422387381 -0.9421231174
H 1.3054689769 -1.1978082975 0.5000755212
H -0.0481897683 -1.2899953443 1.6292954634
H -0.0568083668 0.0827620043 -1.0904377346
H -0.7822948597 1.0431246708 1.7232985321
H -0.8859820629 2.0338242686 0.2634860334
H 1.3014774411 0.9160594836 2.9041508730
H 3.6901419829 1.5336367177 3.1004137166
H 3.6276322083 3.0242056597 -0.9313189492
H 1.2393367141 2.4061527057 -1.1174627410
H -3.6903702517 -0.2993031540 -1.5532244231
H -2.1431179973 0.0453648949 -2.3527451557
H -1.7411627584 2.4900550594 -2.7237855497
H -3.8587750452 3.9963340401 0.5510247162
H -2.9898156494 0.3013511592 1.0730358668
