67
CONF3
C 5.4637667595 -2.0469333908 4.2470401206
C 4.1583364461 -1.6672548179 3.6221682989
O 3.2486990343 -1.0806066639 4.1703791182
O 4.0918616495 -2.0988325532 2.3371510646
C 2.9012481502 -1.7599814667 1.6217132795
C 2.9167562258 -0.3060119133 1.1804584276
O 3.8474780331 0.4291360651 1.4407114175
C 1.6908488119 0.1717800086 0.3984965018
C 2.0289387281 1.2668987399 -0.6648930676
C 1.1386605807 2.4662632596 -0.3586412391
C -0.0596687200 1.8998877494 0.4270647597
C 0.5896898430 0.8145365520 1.3249930396
C -0.4460098158 -0.1689392924 1.8789686183
C -1.5195770267 -0.6523437528 0.9114387113
C -2.2114607827 0.5066566184 0.1844371747
C -1.1933426501 1.4200228663 -0.5037508390
C -1.8623731241 2.6654045223 -1.1240559460
C -3.2439420410 2.4172513941 -1.7277172898
C -3.3886752613 0.9599990469 -2.0157364773
C -3.4067327705 0.5486194542 -3.2962842938
C -3.2842540500 -0.8586848936 -3.6705681799
O -3.3130891902 -1.2216357275 -4.8547317366
C -3.1123912406 -1.8032865418 -2.5718262864
C -3.1056177348 -1.4016865577 -1.2927648471
C -3.3292711503 0.0144496196 -0.8424948373
C -4.7342595699 -0.0344281085 -0.1560518293
F -4.2452157987 2.8464002231 -0.8114089467
F -2.8452476383 1.2790214574 1.2004063928
O -2.4611605323 -1.4667883822 1.6192681148
C 1.2582800363 1.5060224166 2.5283845599
O 1.6377596065 0.6643377823 -1.9115991628
C 1.6510992251 -0.7497894613 -1.7221980220
O 1.1616786778 -0.9133495423 -0.3701589531
C 0.6685673939 -1.3950209745 -2.6712011464
C 3.0615205231 -1.3085554969 -1.8781798514
H 5.4948215028 -3.1338902895 4.3757410722
H 5.5614430826 -1.5629967771 5.2178437802
H 6.2939665217 -1.7673711191 3.5938316963
H 2.8697656139 -2.4145814765 0.7488109583
H 2.0056097933 -1.9527927179 2.2236036990
H 3.0951614656 1.5154749289 -0.6798785085
H 0.8669428205 2.9860449253 -1.2800179707
H 1.6927474933 3.1756354604 0.2618919608
H -0.4885725749 2.6669430642 1.0824949158
H -0.9571425637 0.3365840051 2.7088171542
H 0.0405144527 -1.0502036168 2.3102462093
H -1.0701023526 -1.2947805221 0.1516065650
H -0.7649265951 0.8167668948 -1.3125578007
H -1.9674186822 3.4568368087 -0.3736193841
H -1.2178999200 3.0565770381 -1.9150329601
H -3.3994710070 3.0141773570 -2.6300217745
H -3.4628589496 1.2690069509 -4.1087364244
H -3.0132085442 -2.8537654688 -2.8305106332
H -3.0472998578 -2.1402205325 -0.5001317992
H -5.4771141376 -0.3153845631 -0.9071249864
H -4.9952508290 0.9345579769 0.2626045249
H -4.7261553590 -0.7845987665 0.6364078327
H -2.8588966503 -0.9182211976 2.3099216953
H 1.6820886340 0.7683180371 3.2165908318
H 2.0596286448 2.1854359899 2.2298271158
H 0.5002288669 2.0807775040 3.0676239815
H -0.3294549608 -0.9752404104 -2.5316912730
H 0.6321961096 -2.4720228222 -2.4884398730
H 0.9917122314 -1.2267598681 -3.7015147242
H 3.0670055321 -2.3829067289 -1.6756021828
H 3.7708962512 -0.8161321766 -1.2066499602
H 3.3981430276 -1.1438263118 -2.9051499365
