50
CONF99
C 1.7912711440 0.1472786634 1.7299426832
C 2.4172398288 -0.5162396792 0.5267067132
C 1.6092833062 -1.2759106364 -0.3217640238
C 2.1824696979 -1.9811399896 -1.3982538575
C 3.5340100633 -1.9856355698 -1.6213310925
C 4.3902441919 -1.2387435377 -0.7861120328
C 3.8183549589 -0.4496005543 0.2642101848
C 4.7852694730 0.3837155255 0.9436520242
N 6.0850505951 0.2809776065 0.7238130336
C 6.4932612527 -0.6052260738 -0.2159316240
N 5.7245783582 -1.3152848051 -1.0224425872
N 7.8494920925 -0.7610964286 -0.3227930993
N 4.4337359001 1.3412106656 1.8569796084
C 0.1153633537 -1.3634793375 -0.1369727648
N -0.5035349486 -0.0642781227 -0.3802245319
C -1.8907838897 0.0745681901 -0.3889753004
C -2.7227206009 -0.8886073977 0.1926073417
C -4.1051344555 -0.6770278816 0.2191246957
C -4.6699905270 0.4796446472 -0.3258832019
C -3.8244797888 1.4226949113 -0.9291328939
C -2.4453861079 1.2311590623 -0.9578380387
O -4.4589504649 2.5046915468 -1.4626285609
C -3.6510122207 3.5050637181 -2.0693763462
O -6.0219710006 0.7042658875 -0.2445833537
C -6.7442034992 0.1909027778 -1.3709192241
O -4.9969122837 -1.5577624931 0.7556942224
C -4.4780901774 -2.7377242559 1.3562081059
H 2.4350743409 0.0692744156 2.6084413896
H 1.5593190492 1.2052325928 1.5492167261
H 0.8349590873 -0.3146380985 1.9727285220
H 1.5289087754 -2.5557706897 -2.0492468593
H 3.9822720393 -2.5606419087 -2.4235779235
H 8.4203132723 -0.0353812610 0.0757746457
H 5.1848454921 1.9705263134 2.0951734574
H -0.2856474754 -2.1401089737 -0.8098944041
H -0.1272273999 -1.6881091740 0.8848599802
H -0.0391217980 0.4491524164 -1.1156421792
H -2.3017447002 -1.7902404406 0.6123848175
H -1.7873376537 1.9682996445 -1.4018437669
H -4.3428640206 4.2716948697 -2.4214064021
H -3.0876165324 3.1033852510 -2.9223710222
H -2.9538222133 3.9490773171 -1.3465760947
H -6.4117297125 0.6737106372 -2.2988707188
H -6.6156840560 -0.8961605629 -1.4514613213
H -7.7974637726 0.4222118473 -1.1960127131
H -3.9473648829 -3.3619917469 0.6248317300
H -3.8061009096 -2.4999769483 2.1913343146
H -5.3445147195 -3.2825765329 1.7342073036
H 3.5145651343 1.7419318802 1.8182860477
H 8.1799649328 -1.2085473776 -1.1611024031
