47
CONF71
C -3.8433210652 3.2482126077 -0.0076117801
C -2.9434937696 2.2717354597 0.7154743096
C -2.4363532909 2.5901439371 2.1026756693
C -1.4923762074 2.7212069099 0.9067038615
C -0.3909928333 1.7571827812 0.7801467178
O -0.2595249776 0.7063938041 1.3702722731
O 0.5101756648 2.1979576652 -0.1533343807
C 1.5770453304 1.2598255366 -0.4394864053
C 2.6190068847 2.0463776774 -1.1002941225
N 3.4597803616 2.6297346381 -1.6352395142
C 1.1076887371 0.1257669759 -1.3292767085
C 0.3819458712 0.4068052393 -2.4865395497
C -0.0631828354 -0.6464409823 -3.2792342848
C 0.2279028148 -1.9630644798 -2.9379784687
C 0.9637929003 -2.2239897674 -1.7843710673
C 1.4023095941 -1.1845388854 -0.9660533516
O 1.1603170338 -3.5490371039 -1.4645800423
C 2.2737447148 -3.9017343854 -0.7107861342
C 3.5538177919 -3.5101662627 -1.0941580605
C 4.6429155608 -3.9498188282 -0.3478044925
C 4.4546003481 -4.7766406627 0.7594027217
C 3.1668740679 -5.1656983668 1.1207989389
C 2.0662015219 -4.7264098026 0.3880793398
C -2.8230123824 3.8052325568 2.8223394922
C -3.0378041744 3.8854298129 4.1357007410
Cl -3.5013514048 5.3777501985 4.9138516765
Cl -2.8925904010 2.5410924004 5.2353384669
C -3.2454658582 0.8239579592 0.4045671339
H -3.5568117022 4.2889605261 0.1549550442
H -4.8782103104 3.1157650758 0.3268147254
H -3.8068624289 3.0512086504 -1.0839453274
H -2.2384369917 1.7152104458 2.7139480639
H -1.2717331004 3.7217200193 0.5505520250
H 1.9868508154 0.8631755702 0.4967598722
H 0.1610799776 1.4338019029 -2.7585722572
H -0.6336943326 -0.4422505105 -4.1793409930
H -0.1097136039 -2.7912806669 -3.5519390888
H 1.9513169325 -1.3928153660 -0.0539382225
H 3.6913812234 -2.8733944446 -1.9621990860
H 5.6445001780 -3.6506508391 -0.6404599213
H 5.3087641919 -5.1178884707 1.3349229624
H 3.0126514261 -5.8103280162 1.9804044710
H 1.0555808955 -5.0152976162 0.6571905283
H -2.9464046454 4.7237079177 2.2566968803
H -3.0981770076 0.6289847539 -0.6638383739
H -4.2932369109 0.6162136576 0.6455394546
H -2.6174940118 0.1378910794 0.9748920641
