38
CONF13
C -5.5841347300 -2.8819635185 -0.4761243499
C -5.2744350899 -1.7969552192 -1.4867855074
O -4.9920657640 -0.5327669000 -0.8314086167
C -3.7220238576 -0.4009132843 -0.3546676468
O -2.8431233228 -1.2262864319 -0.4818174759
N -3.6233562681 0.8135665157 0.2778559016
C -2.5066242450 1.3672628152 0.9183857920
C -1.2402939601 0.7792340054 0.8814951663
C -0.2019967557 1.4173395277 1.5433618667
C -0.3679860190 2.6045759597 2.2394833344
C -1.6368977786 3.1742553762 2.2681680505
C -2.6994408022 2.5680221078 1.6161812901
O 1.0596848655 0.8258467554 1.5904642985
C 1.7021910065 0.5927388827 0.3842382947
O 1.2949065585 0.9518241786 -0.6924018280
N 2.8545376448 -0.0873505375 0.6630580054
C 3.8479856904 -0.5116405760 -0.2349955627
C 4.9560899075 -1.1716649684 0.3108538630
C 5.9777119612 -1.6237040446 -0.5117147972
C 5.9121703710 -1.4249604144 -1.8878697849
C 4.8095624793 -0.7688000713 -2.4248198828
C 3.7748046875 -0.3091338424 -1.6167281310
H -5.8627147945 -3.8018762128 -1.0000926049
H -4.7091443465 -3.0915788179 0.1434347822
H -6.4177680042 -2.5862458105 0.1671756955
H -4.4216492204 -2.0670892448 -2.1160490099
H -6.1382827399 -1.5780811303 -2.1192341866
H -4.4731029473 1.3550235834 0.3043155067
H -1.0722049195 -0.1429659293 0.3456689464
H 0.4774613020 3.0614195888 2.7396412904
H -1.7989879825 4.1027720146 2.8051279867
H -3.6854992172 3.0224288770 1.6463532310
H 3.0070202818 -0.2965602804 1.6374691134
H 5.0146501813 -1.3303660109 1.3845205005
H 6.8286110558 -2.1335762908 -0.0716616447
H 6.7101394262 -1.7777445826 -2.5319949252
H 4.7443914901 -0.6076301121 -3.4962004182
H 2.9216381457 0.1980276622 -2.0437465761
