32
CONF2
C 5.6930474826 -0.3188463006 -0.3955336362
C 4.9422163850 -0.2883687035 -1.5692092457
C 3.5544662775 -0.2114579781 -1.5126032438
C 2.8877944377 -0.1632374805 -0.2793076291
C 3.6553141915 -0.1944830562 0.8945401578
C 5.0429560561 -0.2717542676 0.8363305048
C 1.4143840194 -0.0806809131 -0.2183960245
C 0.7724015711 0.6740124507 0.7738263383
C -0.6120186473 0.7528833051 0.8307970665
C -1.4142834579 0.0801971486 -0.1021510688
C -0.7722354011 -0.6746128489 -1.0943323968
C 0.6121891620 -0.7534274069 -1.1512436458
C -2.8878191379 0.1630534680 -0.0414394993
C -3.5547378114 0.2135111497 1.1916980805
C -4.9424581771 0.2908318330 1.2479008922
C -5.6930986742 0.3194666439 0.0740632723
C -5.0428344225 0.2700904235 -1.1575906048
C -3.6552171839 0.1924410446 -1.2154827879
H 6.7758803894 -0.3790794647 -0.4405251853
H 5.4396864404 -0.3158703174 -2.5339353760
H 2.9820067145 -0.1650033110 -2.4339968273
H 3.1594566902 -0.1813757987 1.8603509948
H 5.6181460706 -0.3038877698 1.7567052860
H 1.3653773989 1.2327472581 1.4914002318
H -1.0769091926 1.3726326989 1.5913018360
H -1.3651806777 -1.2337242499 -1.8115846777
H 1.0771295238 -1.3729425392 -1.9119595771
H -2.9824722843 0.1680354103 2.1132203047
H -5.4401333752 0.3201326169 2.2124713539
H -6.7759268231 0.3800650616 0.1187689861
H -5.6179209716 0.3007156260 -2.0780857072
H -3.1592067741 0.1779365744 -2.1811546726
