66
CONF23
C -4.0948312878 4.1007840563 -0.3589091937
C -2.5829583312 4.0284066807 -0.4487890764
O -2.0825836718 2.8142566591 0.1566302268
C -2.0846164441 1.7043431707 -0.6369754945
O -2.4903706332 1.7239929418 -1.7875891401
C -1.5506930209 0.5487892529 0.0835956596
C -1.5689572326 -0.6791201021 -0.5040068935
N -1.1750163340 -1.7794141661 0.2235480684
C -0.8071751608 -1.7508982295 1.5506852928
C -0.7335228281 -0.5536978365 2.1963843564
C -0.9297310514 0.7658072564 1.4568798529
C 0.3562186158 1.6002425149 1.3525299497
C 0.4213695811 2.8120950794 2.0402235080
C 1.5148024686 3.6602116008 1.9267257917
C 2.5782340266 3.3121461286 1.0973965570
C 2.5316177012 2.1183116827 0.3962273051
C 1.4348656691 1.2488705066 0.5110600479
C 1.4317358193 -0.0043777630 -0.2344701232
C 1.8883649297 -0.1897257674 -1.4827770395
C 1.7675993147 -1.5141654733 -2.1150496423
O 1.2420267385 -2.4927519014 -1.6082475752
O 2.3037959151 -1.4804479440 -3.3549511705
C 2.2876742578 -2.6734117151 -4.2270248323
C 2.9681505280 -2.1651351166 -5.4932158941
C 3.1003330686 -3.7967615232 -3.5914829455
C 0.8488609296 -3.0875440408 -4.5208434412
C -0.4627629982 -0.5268733280 3.6342324018
O -0.1961511427 -1.4824611090 4.3443624584
O -0.5481114985 0.7439712040 4.1226235408
C -0.2949836595 0.8972008687 5.5386820857
C -1.5398219179 0.6025708761 6.3525545906
C -0.5321772009 -3.1012137935 2.1399540708
C -1.9942797084 -0.9881347260 -1.9064525379
H -4.5512377393 3.2974476960 -0.9418128329
H -4.4437567574 5.0588109837 -0.7577235630
H -4.4239010127 4.0193568354 0.6810672114
H -2.1086573841 4.8295086168 0.1252215342
H -2.2447730606 4.0747273435 -1.4880034589
H -0.9894530359 -2.6263814407 -0.2906823598
H -1.6188016238 1.3763503135 2.0469502926
H -0.4178375509 3.0937846276 2.6681191763
H 1.5365250440 4.5936276877 2.4806451564
H 3.4409571552 3.9638727109 1.0049551966
H 3.3674075661 1.8218233145 -0.2299531295
H 1.0259699235 -0.8762012846 0.2653250266
H 2.2933931889 0.6175964518 -2.0842707708
H 2.4053648729 -1.3320536448 -5.9231908445
H 3.9829285367 -1.8233678832 -5.2720625053
H 3.0228788075 -2.9691179899 -6.2323664114
H 4.1004894415 -3.4379572199 -3.3304576775
H 3.2083633588 -4.6117716123 -4.3141283442
H 2.6141956589 -4.1819910602 -2.6949433613
H 0.3600866270 -3.4853482783 -3.6311375724
H 0.2774210026 -2.2318212949 -4.8936061226
H 0.8518227926 -3.8595358527 -5.2966313322
H 0.0145556923 1.9409020628 5.6442181972
H 0.5317031144 0.2412000851 5.8263811768
H -1.8296709268 -0.4447557091 6.2419685733
H -1.3435430162 0.7973318768 7.4118687309
H -2.3698115366 1.2392265450 6.0326742523
H 0.4615823628 -3.1341356349 2.5894762843
H -0.6100065241 -3.8770529517 1.3729871028
H -1.2368720354 -3.3233370412 2.9449786299
H -1.4160541583 -0.3967185693 -2.6195723517
H -1.8571427433 -2.0511578416 -2.1245681050
H -3.0410327517 -0.7187259126 -2.0652355840
