40
CONF194
C 1.7501688779 4.0979738609 -3.0901121883
C 2.3949439723 3.3209303061 -1.9701002201
O 1.6737575666 2.0444132351 -1.8572056773
P 2.0954799751 0.9819460806 -0.7443676303
S 2.3269669414 1.6068626974 1.0780768071
O 3.3276135216 0.2416640313 -1.4294434731
C 4.2709010745 -0.5892778738 -0.6674806346
C 3.6674810729 -1.9252719241 -0.3023114912
O 0.9231826928 -0.1359335192 -0.9701395002
C -0.3596311894 -0.0573782704 -0.4772945668
N -0.9117267191 -1.2422532147 -0.2697309111
C -2.1774991174 -1.2348331729 0.1817044687
N -2.8991443420 -0.1407028396 0.4402941704
C -2.3201823025 1.0511443200 0.2186810283
C -3.1378499526 2.2700198180 0.5038777384
C -1.0152638526 1.1460371925 -0.2593815202
C -2.8289335836 -2.5747601442 0.4270455143
C -4.0948243513 -2.7309188960 -0.4244118592
C -3.1409308083 -2.7522807829 1.9190435884
H 2.2616496032 5.0592979986 -3.1952151844
H 0.6955314464 4.2878171017 -2.8726911849
H 1.8289229723 3.5571826475 -4.0368726071
H 3.4476307674 3.1027930182 -2.1783561226
H 2.3150688656 3.8420114686 -1.0109578098
H 4.5855586564 -0.0253151344 0.2159629531
H 5.1193344937 -0.6988510618 -1.3454922195
H 2.8376390794 -1.8102367011 0.4010937574
H 4.4376082201 -2.5390473025 0.1755478103
H 3.3090098790 -2.4484987461 -1.1930362215
H -4.0440873164 2.2610472096 -0.1104784805
H -2.5777723651 3.1849200150 0.3039782422
H -3.4579495091 2.2641125121 1.5506984617
H -0.5537277344 2.1055582495 -0.4528851223
H -4.5180424054 -3.7297678047 -0.2795861018
H -4.8465857212 -1.9914500580 -0.1331651471
H -3.8755372464 -2.6009371789 -1.4889242310
H -3.8733120418 -2.0085695248 2.2474206904
H -3.5569096191 -3.7490449920 2.0958914920
H -2.1015744182 -3.3351957705 0.1254954430
H -2.2383621664 -2.6423532681 2.5284485377
