45
CONF673
O 1.4694001455 -2.3469851477 -1.1928129066
C 1.7212504523 -2.3170324215 0.2108602055
C 2.0679034914 -0.9276043308 0.7064386837
O 3.3044301101 -0.4948277134 0.0664656047
C 3.1509530819 0.8049519930 -0.5061768071
O 2.8179537043 0.7334056988 -1.8793819215
C 4.4618220301 1.5567164537 -0.3087243200
O 4.8422729251 1.6237372842 1.0579115925
C 1.9284745680 1.3910199456 0.2086997565
O 1.3310545002 2.4940983248 -0.4550550936
C 1.0451226601 0.1566387349 0.3691011489
O 0.1010340832 0.3052999832 1.4323573719
C -1.2532830252 0.2682362705 1.0790546615
O -1.5528827978 -1.0283219600 0.5656869202
C -2.9641090708 -1.2229159661 0.3588901376
C -3.1314471104 -2.6661967026 -0.0788963462
O -2.7314438988 -3.5753977899 0.9492428893
C -3.5281642939 -0.2203068658 -0.6430948335
O -2.9934635977 -0.4977043412 -1.9371664782
C -3.1724036920 1.1948798909 -0.1906597655
O -3.6145664595 2.0968257219 -1.2063916410
C -1.6722999770 1.3194959519 0.0423256135
O -1.4103819341 2.6433485041 0.4976822212
H 2.2509035627 -1.9791990283 -1.6290650358
H 0.8034453025 -2.6486561061 0.7080511704
H 2.5326956915 -3.0082205152 0.4820123115
H 2.2252702687 -0.9541947632 1.7937281767
H 3.6100483564 0.5083678462 -2.3875287259
H 4.3357173779 2.5842967256 -0.6628496081
H 5.2375052860 1.0677481353 -0.9210694674
H 4.9112178189 0.7127021452 1.3755435167
H 2.2319662151 1.7428237974 1.2005213049
H 1.2555740391 2.2610087566 -1.3932124726
H 0.5490007067 -0.0864124804 -0.5760864985
H -1.7948858219 0.4407136566 2.0230999009
H -3.4907749820 -1.0743851145 1.3167157107
H -4.1896745707 -2.8594074929 -0.2799669704
H -2.5616390720 -2.8386642216 -1.0010785665
H -1.7981656599 -3.4023141792 1.1297134263
H -4.6254705398 -0.3236614550 -0.6512017524
H -3.1953824904 0.2722134080 -2.4877035953
H -3.6956743743 1.4023676479 0.7578292190
H -3.1773146815 2.9437056699 -1.0388581484
H -1.1557585854 1.1243721526 -0.9074607617
H -0.4758294254 2.8234339653 0.2916440343
