34
CONF2
C 3.9652392097 -0.1117512771 0.6813041403
C 2.6103739557 0.3406557219 1.1340310657
C 1.4874781540 0.2102580406 0.3048529810
N 1.6537449725 -0.2703107621 -1.0070223804
C 0.9122927847 -1.2027577372 -1.6731126332
O 1.3165255309 -1.6776084273 -2.7366604168
C -0.3951714908 -1.6264384624 -1.1057666710
C -1.2904809188 -0.7681369998 -0.4350224388
N -2.5524820508 -1.1217089937 -0.1706929762
C -2.9550981205 -2.3536142163 -0.4991980342
C -2.1293222892 -3.2984585261 -1.0959016692
C -0.8403253345 -2.9088563852 -1.4249945470
N -0.9084502253 0.5341389593 -0.0567467260
C -1.9736346229 1.4825126247 0.1903004844
C -1.7110371703 2.8920337671 -0.2430979551
C -2.6707197092 2.0234755554 -1.0200827664
C 0.2413135901 0.6527284730 0.7703575591
N 0.0767696358 1.2162676553 1.9645485296
C 1.1541068353 1.3655397070 2.7458901374
C 2.4197878414 0.9353511470 2.3816069983
H 4.3423468098 0.5188080992 -0.1335646235
H 3.9326059856 -1.1407318745 0.3079126524
H 4.6797513127 -0.0562330116 1.5039404708
H 2.5448218762 -0.0765325186 -1.4484787604
H -3.9912337865 -2.5941092482 -0.2675123067
H -2.4971103279 -4.2921395617 -1.3234829285
H -0.1697991377 -3.5772795038 -1.9543478929
H -2.5659651341 1.3315399447 1.0882418135
H -2.1149376354 3.6857553295 0.3760073941
H -0.7467202527 3.0982903393 -0.6965758592
H -3.7339941288 2.2201603020 -0.9347713078
H -2.3391784575 1.6559124216 -1.9858901797
H 0.9897637693 1.8495966680 3.7063574675
H 3.2587375238 1.0636433482 3.0575714793
