44
CONF30
C 0.2001865972 -2.7105504936 -0.0986805608
C -0.9876804905 -1.7665674993 -0.3399498587
C -2.2899216543 -2.5130001899 -0.0401501241
C -0.9606782068 -1.2692121755 -1.8017738220
C 0.0655905456 -0.1197146528 -1.8454577285
C 0.2855626303 0.3184429015 -0.3758420731
C 0.3008790431 1.8435198599 -0.1891357440
C 1.4900280102 2.4696970271 -0.8719097368
C 1.3536248102 3.1657178072 -2.0747841815
C 2.4577852863 3.7157853462 -2.7228938520
C 3.7115801941 3.5624035178 -2.1479083312
Cl 5.1197294918 4.2571844065 -2.9537548949
C 3.8864228721 2.8798316766 -0.9494628903
C 2.7696337094 2.3381594670 -0.3221512939
C -0.8110572809 -0.4252865169 0.4351574936
O -2.0713952355 0.2575614634 0.3397199949
C -0.3889915417 -0.5234214253 1.9106595906
N -1.3399452124 -1.2358888784 2.7580247807
C -2.5735385280 -0.8593211943 3.1455441769
N -3.1398370093 -1.8141205410 3.8784405409
C -2.1776219346 -2.7773010273 3.9063463281
N -1.0674754397 -2.4732742985 3.2449335804
H 0.2354293217 -3.0587675537 0.9373934081
H 0.0861570358 -3.5888993420 -0.7422314287
H 1.1604976430 -2.2452999675 -0.3412910984
H -2.3001366528 -2.9358591944 0.9687358674
H -2.3888429640 -3.3460454597 -0.7456389737
H -3.1597072004 -1.8633076389 -0.1590434708
H -1.9543627154 -0.8992389945 -2.0729865235
H -0.7138583038 -2.0866943348 -2.4867584900
H -0.3081863871 0.7162934797 -2.4449161916
H 1.0112911224 -0.4346529332 -2.2963905083
H 1.2540806911 -0.0575843121 -0.0257180697
H 0.3371182880 2.0927601617 0.8793030075
H -0.6161359493 2.2766718918 -0.6044887189
H 0.3691135281 3.2862006082 -2.5174683069
H 2.3397919518 4.2553520256 -3.6559435917
H 4.8731161301 2.7764756571 -0.5119419778
H 2.8986659415 1.8052970654 0.6162789299
H -1.9599344699 1.1541237783 0.6833593256
H -0.2752445618 0.4886661170 2.3152466810
H 0.5707953309 -1.0334300621 2.0077838855
H -3.0041162686 0.0968165324 2.8833122349
H -2.2884123851 -3.7195226075 4.4284327324
