47
CONF10
C 3.8222961436 2.7629552507 -1.4728684462
C 4.1795179653 1.2832399674 -1.6754523504
C 3.6589799497 0.4225148996 -0.5748367554
N 4.4175005659 0.0724101291 0.4723974800
N 3.6240850647 -0.6162912323 1.3097585206
C 4.2131020940 -1.2634572138 2.4770557531
C 2.3621868360 -0.7672778836 0.8219637939
C 1.2763267609 -1.4494114494 1.5706904792
O 1.1607157904 -1.3284470383 2.7945727377
N 0.4516631138 -2.1903718619 0.7984743927
C -0.8052356816 -2.7655283357 1.2795489697
C -1.9879664522 -2.0670573485 0.6531528995
C -2.3732082089 -0.7994413844 1.0873399754
C -3.4312146872 -0.1274974167 0.4804058165
C -4.1389664848 -0.6967621978 -0.5842322515
C -3.7420708117 -1.9707481200 -1.0125292389
C -2.6874551030 -2.6449361352 -0.4067348135
C -5.3016942953 0.0127186077 -1.2821920643
C -4.9421731488 0.2306026429 -2.7646813089
C -5.6125874490 1.3770076136 -0.6553860041
C -6.5661786102 -0.8624756743 -1.1870086473
C 2.3649829998 -0.0927044124 -0.3973863975
Cl 1.0233712412 0.1551736673 -1.4680293058
H 4.2533564752 3.1375319937 -0.5396592561
H 4.2091887767 3.3664461214 -2.2991670678
H 2.7376442417 2.8997793331 -1.4273023943
H 3.7675805127 0.9315993145 -2.6277180644
H 5.2662045652 1.1636023761 -1.7238200497
H 3.4932839603 -1.2564923854 3.2944620635
H 5.1041748300 -0.6986478519 2.7526349365
H 4.4925262130 -2.2951044277 2.2388207409
H 0.6243286310 -2.2264176371 -0.1958757467
H -0.8131491975 -2.6542027145 2.3664440496
H -1.8393410174 -0.3291650659 1.9096751830
H -3.7005202836 0.8534826741 0.8539283127
H -4.2616932118 -2.4518999975 -1.8354440930
H -2.4041972323 -3.6325644430 -0.7621993967
H -5.7652804352 0.7405948578 -3.2772095161
H -4.7587966661 -0.7182022314 -3.2775063892
H -4.0427790883 0.8489300376 -2.8558121907
H -6.4511334859 1.8352067195 -1.1891170739
H -5.8967702993 1.2812534105 0.3978619825
H -4.7586798293 2.0588904444 -0.7247946121
H -7.4052706332 -0.3590366427 -1.6795507466
H -6.8358004275 -1.0383074987 -0.1401672193
H -6.4222726077 -1.8324292948 -1.6715314949
H -0.8241314706 -3.8340774177 1.0401253847
