30
CONF7
N 5.5262612687 -0.4136045555 0.5528321302
C 4.1735560082 -0.2522389237 0.5322077349
N 3.6957069340 0.6554954006 1.4261332637
C 2.3890105695 0.8645515517 1.4013835987
N 1.8387173460 1.7317110231 2.2805548726
C 1.5437918905 0.1721318571 0.4741355888
N 0.2265828916 0.4277417606 0.4289795176
C -0.5077671181 -0.2207957003 -0.4564144246
C 0.1162337043 -1.2244041731 -1.2882313553
N -0.6333426541 -1.9734639858 -2.1558061950
N 1.4158362422 -1.4731801141 -1.2580910286
C 2.1713215579 -0.7614057286 -0.3921184738
N 3.5000354032 -0.9759095540 -0.3625200599
C -1.9520316227 0.0863436795 -0.5051592197
C -2.6563479824 0.2625102560 0.6935869049
C -4.0079828163 0.5788591792 0.6810400956
C -4.6823136840 0.7324783485 -0.5283076088
C -3.9903629005 0.5744684274 -1.7251549234
C -2.6374756183 0.2518075345 -1.7169256019
H 5.9072093653 -1.1910591764 0.0425357980
H 6.0337419119 -0.0392221975 1.3347008087
H 2.4516777026 2.3321076100 2.8043579890
H 0.8756953404 1.9906740051 2.1433021221
H -1.6230510158 -2.0494608264 -1.9865110967
H -0.1677514193 -2.7898379355 -2.5209237341
H -2.1254873316 0.1431796214 1.6320065688
H -4.5405075260 0.7026704937 1.6188242004
H -5.7389778411 0.9791089208 -0.5371475913
H -4.5023772202 0.7141591851 -2.6719649317
H -2.0996010150 0.1645841172 -2.6556464393
