39
CONF162
C 3.3526845234 1.6519446780 -1.7162668807
C 4.0810140373 0.4928083414 -1.0376444772
C 3.2573175934 -0.7924460441 -0.9230445411
C 2.0221509103 -0.6894754506 -0.0507794041
C 1.3767251425 -2.0166214688 0.2981943287
O 0.0176639962 -1.6428762284 0.5887196770
C -0.2763992226 -0.4773773417 -0.1794829181
C -1.2218606330 -0.8735372565 -1.3350455027
N -2.5211768112 -1.2822178185 -0.8356644432
C -2.8869902142 -2.4752083866 -0.3259862585
N -4.1363283632 -2.4200914857 0.1212975983
C -4.4904558255 -1.1295233832 -0.1389920575
N -3.5452652855 -0.3988960024 -0.7164767330
O 0.9362080523 -0.0483528988 -0.7736186812
C -0.8784549888 0.5768631654 0.7500775356
C -1.1111652931 1.9011907280 0.3633881404
Cl -0.7180349091 2.4863013022 -1.2485718076
C -1.6767904288 2.8361796467 1.2239374059
C -2.0336221814 2.4280398728 2.5012000433
Cl -2.7521894015 3.5999061840 3.5925964327
C -1.8362297859 1.1233393841 2.9284082339
C -1.2599242090 0.2188706845 2.0457595231
H 4.0224931581 2.5083187255 -1.8441783268
H 2.9860056902 1.3573536337 -2.7060768620
H 2.4908791967 1.9810212971 -1.1289321017
H 4.4036946969 0.7974555471 -0.0336440353
H 4.9944230617 0.2604569251 -1.5981490120
H 3.8874124322 -1.5792683537 -0.4880571885
H 2.9491207566 -1.1444113525 -1.9160839102
H 2.2309703053 -0.1145209816 0.8649906263
H 1.7956617973 -2.4900046223 1.1888248038
H 1.4141385430 -2.7094078789 -0.5547234246
H -1.3628505706 -0.0418423743 -2.0259036918
H -0.7613608092 -1.7127639519 -1.8633534281
H -2.2279342703 -3.3330534429 -0.3140057588
H -5.4653613635 -0.7188131808 0.0923835505
H -1.8367062797 3.8568529047 0.8986775116
H -2.1222526134 0.8152803110 3.9271238943
H -1.0972102384 -0.8014726386 2.3691020443
