55
CONF174
C 3.2054726094 -0.4924533795 -5.7089326201
O 3.9125382990 -1.0449564465 -4.6027818412
C 3.2762959737 -1.0691323937 -3.3973206398
C 1.9778370283 -0.6055398879 -3.1763058068
C 1.4280879637 -0.6800029053 -1.9005586428
C 2.1508175438 -1.2054322223 -0.8313895364
C 3.4463692737 -1.6733689641 -1.0742385742
C 4.0092823644 -1.6087824474 -2.3367449262
C 1.6045867312 -1.2661503421 0.5694648484
S -0.0277679549 -2.1642082418 0.5328561263
C -0.7290612003 -1.7105997155 2.1085124537
C -0.9471626985 -2.7035709183 3.0675303800
C -1.5792465461 -2.4063456885 4.2681488015
C -1.9710539383 -1.0973974147 4.5354661779
C -1.7431678722 -0.0974169357 3.6004618757
C -1.1386021867 -0.3894814179 2.3746821419
N -0.9699737060 0.6480889982 1.4241662614
C -2.1628482595 1.3771390207 0.9678783019
C -2.8228167559 0.6428010967 -0.2014060916
N -4.0743474926 1.2852596370 -0.5974236362
C -4.4295017226 0.9337422881 -1.9697119008
C -5.1663609524 0.9301034257 0.3051857745
C 0.2114526238 0.8890784457 0.7670830455
O 0.3126121480 1.7109263657 -0.1300612468
C 1.4243572634 0.0932075339 1.2701360135
O 2.6228680083 0.8337573300 1.0143924496
C 2.7262950773 2.0036576302 1.7051103034
C 3.9209966271 2.7821479888 1.2444079796
O 1.9362941239 2.3441682419 2.5525060977
H 2.9462211846 0.5593008260 -5.5313542629
H 2.2931223947 -1.0633888542 -5.9252303281
H 3.8845959105 -0.5598769873 -6.5598238954
H 1.3865586904 -0.1845638768 -3.9796977730
H 0.4211782788 -0.3124688268 -1.7422004178
H 4.0268376161 -2.0893869927 -0.2554943642
H 5.0140090266 -1.9705776576 -2.5257293690
H 2.2955294513 -1.8538551316 1.1833932299
H -0.6210526175 -3.7153533419 2.8515183536
H -1.7506913706 -3.1906294793 4.9977422462
H -2.4398037155 -0.8492050259 5.4819611113
H -2.0166574604 0.9290756642 3.8208190784
H -1.8609412639 2.3786147779 0.6555737994
H -2.8485943302 1.4637616898 1.8130704946
H -2.1256139052 0.6734984310 -1.0455214169
H -2.9648623523 -0.4247550282 0.0649460059
H -5.3514799104 1.4516162371 -2.2546483555
H -4.5913170463 -0.1536998868 -2.1082531341
H -3.6359172494 1.2531702516 -2.6524465030
H -4.9282441939 1.2148124876 1.3341584242
H -6.0737486565 1.4700320869 0.0157679333
H -5.3899877216 -0.1554288468 0.2938401578
H 1.3261651801 -0.0646604559 2.3492414754
H 4.1675872536 3.5440791715 1.9827871684
H 4.7718981579 2.1242687660 1.0571195440
H 3.6609544820 3.2663826438 0.2973468417
