53
CONF129
C 0.5580329625 4.2461175271 -1.6566180594
C 0.2174297480 4.2261303140 -0.1802957289
O -0.1522108137 2.8848166142 0.2356558724
C 0.8499043788 2.0433842935 0.5832058809
O 2.0256381344 2.3923954340 0.6300203886
C 0.3361685709 0.7158758972 0.8951260530
C 1.2036906984 -0.2951929319 1.1793449183
N 0.7243753521 -1.5177013833 1.5595976509
C -0.5942956698 -1.7767347464 1.8456535152
C -1.5329558635 -0.8242977542 1.5680560655
C -1.1654567848 0.4562522569 0.8212236736
C -1.6121965398 0.3744477566 -0.6394441501
C -1.0688160262 -0.6384880576 -1.4403188248
C -1.4030486671 -0.7858160287 -2.7796146215
C -2.3082991745 0.0972267200 -3.3634818269
C -2.8689846520 1.1134965493 -2.5996900397
C -2.5187974570 1.2402217909 -1.2566677629
Cl -3.2871931385 2.5627757352 -0.3733944273
C -2.9286774817 -1.0518613661 1.9265110050
O -3.3969340604 -2.0346393399 2.4890010115
O -3.7064190454 -0.0027094742 1.5541192596
C -5.1099740060 -0.1242494474 1.8618385507
C -0.8328978882 -3.1213020541 2.4611684815
C 2.7230341806 -0.2210152826 1.1470524531
O 3.3059438693 -1.5190055074 1.1957697592
C 3.3912645111 -2.1506778663 -0.1022430941
C 4.6365749153 -1.7123345069 -0.8642081856
N 5.9080714584 -2.0026144570 -0.1869304278
H 0.7696036067 5.2736514178 -1.9685709604
H -0.2822164868 3.8705331483 -2.2485843422
H 1.4396927208 3.6332153885 -1.8628937111
H -0.6699166030 4.8273348641 0.0310753102
H 1.0500328109 4.5781561190 0.4342711791
H 1.4230722313 -2.2193966798 1.7722474793
H -1.6881682275 1.2934279947 1.2843110748
H -0.3607183351 -1.3271727871 -0.9878721888
H -0.9589001778 -1.5842313169 -3.3651046009
H -2.5816092439 0.0004332151 -4.4092041675
H -3.5757768831 1.8084690609 -3.0394204651
H -5.5409193191 -0.9878066919 1.3482092173
H -5.2589976000 -0.2288540994 2.9397904056
H -5.5648968599 0.7984454723 1.5016901117
H -1.5969656848 -3.6711190337 1.9089403613
H 0.0919431942 -3.7031958978 2.4737097497
H -1.1977996756 -3.0172318002 3.4862680232
H 3.0455574031 0.3366739419 0.2643140845
H 3.0779955951 0.3268932287 2.0265375773
H 3.4316813507 -3.2274334083 0.0973774762
H 2.4832443630 -1.9393894836 -0.6876862527
H 4.6243967761 -2.2167146829 -1.8389587950
H 4.5884330119 -0.6354832126 -1.0691900924
H 5.9648342603 -3.0012091419 -0.0052252858
H 5.8934261607 -1.5624946965 0.7287195056
