41
CONF66
C -5.6015806450 0.9903041529 3.1781649162
C -5.0403387259 0.0053629613 2.1832745132
O -5.0130796242 0.6751573403 0.8800534594
C -4.5534302438 -0.0504652001 -0.1450287918
O -4.1402241756 -1.1864927179 -0.0656756725
C -4.6749657422 0.7411230314 -1.4482203585
C -6.0778240612 0.5739269962 -2.0146582341
O -3.7704638706 0.2291943586 -2.4259518816
C -2.4293794081 0.4039792522 -2.2265411835
C -1.6039496436 -0.1506518337 -3.2099250653
C -0.2259307860 -0.0287852790 -3.1139050028
C 0.3103824543 0.6503183089 -2.0310842786
C -0.4856741279 1.2156413657 -1.0521829989
C -1.8698563141 1.0887788169 -1.1441529656
O 1.7137453686 0.8238277684 -1.9910442828
C 2.4009244864 0.2306403663 -1.0286773109
N 3.6391286345 0.4760724752 -0.7447381905
C 3.9168684914 -0.4253192166 0.2857512843
C 2.7680384006 -1.1740296767 0.5624873196
O 1.7752590324 -0.7481707852 -0.2996516767
C 2.6758992069 -2.1499650152 1.5290726659
C 3.8565070622 -2.3574190204 2.2434091434
C 5.0315941472 -1.6396603190 2.0065607446
C 5.0753115485 -0.6574254372 1.0176797146
Cl 3.8590403767 -3.5864858395 3.5035866865
H -5.6343025170 0.5207053301 4.1655239805
H -4.9737981654 1.8833561002 3.2419658428
H -6.6174449309 1.2881402856 2.9043254230
H -4.0181146490 -0.2966052964 2.4297449735
H -5.6604259464 -0.8912893626 2.0914685393
H -4.4712418022 1.8015664169 -1.2533908951
H -6.1620052522 1.1356438666 -2.9479208122
H -6.8129951227 0.9570812787 -1.3033078529
H -6.2824954499 -0.4823530415 -2.2096758156
H -2.0563667686 -0.6764465695 -4.0437242090
H 0.4269951287 -0.4554730849 -3.8673904195
H -0.0384947502 1.7497335527 -0.2200646023
H -2.4819200667 1.5354628329 -0.3699310438
H 1.7698419681 -2.7114358027 1.7196332027
H 5.9141440005 -1.8514563930 2.5987853178
H 5.9847371277 -0.0973383002 0.8312375370
