65
CONF19
C 2.7090418265 -0.6337157029 1.9577663400
C 1.5415823448 -1.6018709202 1.6999796465
C 1.5792729328 -2.7588684766 2.6989238290
C 1.5542662826 -2.0508207051 0.2535334040
C 2.0818026425 -3.2791590341 -0.1532344173
C 2.1195152967 -3.6556870685 -1.4935819183
C 1.6331720721 -2.7951055801 -2.4709952903
C 1.1096228811 -1.5575688431 -2.1053274157
C 1.0703181719 -1.2150378575 -0.7600720603
O 0.5863986116 0.0412947033 -0.3530479638
P -0.7470449403 0.7339010919 -0.9272916874
O -0.8353475109 0.9812920682 -2.3803001885
O -1.9666441246 -0.1728269339 -0.4182907098
C -2.0002204500 -0.8338298226 0.8257793500
C -2.0195570608 -0.0905446389 1.9972296561
C -2.0885982047 -0.7573529280 3.2173241679
C -2.1466462725 -2.1466916137 3.2399046226
C -2.1411694314 -2.8658560968 2.0475400392
C -2.0680713189 -2.2305153818 0.8046074622
C -2.1127395849 -2.9848221270 -0.5074962296
C -1.6035451156 -4.4226141071 -0.4008017356
C -3.5415531070 -2.9564455910 -1.0764026065
O -0.7872538453 2.0321631061 0.0121608502
C -0.5214165596 3.3211585365 -0.4991082533
C -1.5747927666 4.0039757084 -1.0923132548
C -1.3632351971 5.2931380190 -1.5661165434
C -0.1038110614 5.8744751098 -1.4351775293
C 0.9298783574 5.1700028343 -0.8281478980
C 0.7499277125 3.8710388282 -0.3360967371
C 1.8880813527 3.0993779902 0.2972976635
C 2.8491517686 2.5903455371 -0.7882581123
C 2.6403033535 3.9231668144 1.3483240799
H 2.6801882239 0.2175794662 1.2724038138
H 2.6663742099 -0.2523663293 2.9835167479
H 3.6653647697 -1.1513032832 1.8221245259
H 0.6081990727 -1.0500346260 1.8593194162
H 2.5492988839 -3.2674925320 2.6903145783
H 1.4194242421 -2.3709111464 3.7096817726
H 0.7971410073 -3.4952053937 2.4901727704
H 2.4639857474 -3.9625698215 0.5971154915
H 2.5300104809 -4.6213848729 -1.7707800035
H 1.6623626541 -3.0744801100 -3.5191144578
H 0.7348620388 -0.8669001053 -2.8517536829
H -1.9794214898 0.9915844767 1.9527183356
H -2.0986471237 -0.1875910313 4.1407236228
H -2.1973177099 -2.6752582966 4.1865028195
H -2.1874432947 -3.9488626983 2.0849127464
H -1.5280452229 -4.8566122500 -1.4025235035
H -0.6128997174 -4.4603185569 0.0627270588
H -2.2861906512 -5.0511236919 0.1808778371
H -4.2265377811 -3.4812565750 -0.4010476287
H -3.9007110743 -1.9311089070 -1.2024414944
H -3.5699585201 -3.4549720796 -2.0508508585
H -2.5416849756 3.5193566750 -1.1792315160
H -2.1774456733 5.8368196209 -2.0337835627
H 0.0732308631 6.8795650606 -1.8044685200
H 1.9056755931 5.6367965750 -0.7350573222
H 1.4575663493 2.2308215436 0.8038706838
H 3.3098474069 3.4337093671 -1.3144969514
H 2.3252447972 1.9724800897 -1.5243293940
H 3.6468617508 1.9891114679 -0.3388804226
H 3.1710658001 4.7666768646 0.8954705690
H 1.9572348948 4.3145335395 2.1084888784
H 3.3842718613 3.2919772741 1.8451341205
H -1.4634155170 -2.4531775470 -1.2122831102
