94
CONF8
C 10.5877035178 -2.0132598104 -0.3561370510
C 9.2385888172 -1.9713521424 0.3316774314
C 8.3590516451 -3.1899966664 -0.0089712717
C 7.0409009192 -3.1602105304 0.6885697605
C 5.8736587952 -2.8157047122 0.1117896329
C 4.6377719566 -2.6874286626 0.8308255836
C 3.4749439041 -2.2387178198 0.2926322367
C 2.2594819464 -2.0871121786 1.0290570557
C 1.1036265146 -1.5944054561 0.5144434586
C -0.1086235371 -1.4274364521 1.2652247216
C -1.2345341590 -0.8771132273 0.7750813711
C -2.4489435740 -0.5796158862 1.5954095314
C -2.6157094813 0.9176164499 1.8585011188
C -2.7507779760 1.7241826783 0.5627320993
C -3.9838082159 2.6639599702 0.5355447447
C -3.9183836484 3.5655323100 -0.7049451761
C -2.5717030367 4.2725068514 -0.7825281332
C -1.4501526941 3.2361190453 -0.7835991651
O -1.5436388035 2.4717208170 0.4285403194
C -0.0367426960 3.8357366265 -0.7325216327
C 1.0288526713 2.7547441852 -0.5862813803
C 2.4464115399 3.2808669682 -0.3282729619
C 3.3013419389 2.1467677779 0.1808614818
C 4.5807799981 1.7370889178 -0.4241436490
O 3.3585208363 0.9808397663 -0.6704314241
C 5.5719726660 0.9813858467 0.3478784388
C 6.8108372037 0.7342614055 -0.0842342116
C 7.6840192760 -0.1767908698 0.6835105077
O 7.6183220679 -0.3774861653 1.8754594000
O 8.5511422730 -0.7889534348 -0.1654548111
O 1.0212335473 1.9852663371 -1.8091819495
O -1.6367220325 2.4262842024 -1.9240402049
O -4.9316766735 4.5772647601 -0.6598834072
C -5.1939121055 1.7512890384 0.5652779885
O -5.7174026331 1.3686000988 1.6024147151
O -5.5581764687 1.3323678386 -0.6426275801
O -3.6747914515 -0.9692019725 0.9313436947
C -4.0567449995 -2.3220765781 1.0489877584
C -5.5892201112 -2.3720083951 0.9635942545
C -6.0975655455 -2.1235836393 -0.4982558849
C -4.9429921898 -1.9904190099 -1.4784718451
C -3.9436804801 -3.1289320705 -1.2593229518
O -3.4460571524 -3.1658551108 0.1007418770
C -2.7422960919 -3.0424838032 -2.1814349588
O -5.5173765314 -2.0747651923 -2.7925142015
N -6.9617376005 -0.9282715965 -0.5747986492
O -6.2007239081 -1.5447147108 1.9274097906
H 11.1494283164 -2.8892504906 -0.0193493009
H 11.1681540127 -1.1178909095 -0.1200048087
H 10.4666552721 -2.0746018654 -1.4419097231
H 9.3477639242 -1.8736431586 1.4165793568
H 8.9249887003 -4.0869377229 0.2759802635
H 8.2214570963 -3.2144981735 -1.0966304985
H 7.0539810311 -3.3534822521 1.7608576720
H 5.8561291357 -2.5851705046 -0.9542590640
H 4.6582880079 -2.9472228889 1.8895179834
H 3.4572605808 -1.9552992806 -0.7591375292
H 2.2771649011 -2.3844746245 2.0782929456
H 1.0843486104 -1.2863954680 -0.5312884700
H -0.0913221049 -1.7554635336 2.3058499580
H -1.2594710703 -0.5399796045 -0.2602574287
H -2.3847731219 -1.1078463481 2.5593152069
H -3.4994653308 1.0518006872 2.4888993473
H -1.7431624273 1.2878996538 2.4043147882
H -2.8483124235 1.0523737635 -0.3003638606
H -3.9889656187 3.2809272192 1.4414340987
H -4.0399056648 2.9462095781 -1.6004116321
H -2.4530241390 4.9346692977 0.0824064446
H -2.5289588725 4.8750090065 -1.6946678564
H 0.1379854378 4.4201233004 -1.6428385924
H 0.0185122808 4.5085034282 0.1294167738
H 0.7386446976 2.1029874222 0.2509318482
H 2.4268447711 4.0699794865 0.4323784888
H 2.8494275548 3.7059411153 -1.2544996276
H 3.1463679282 1.8840074200 1.2301619796
H 4.9386164817 2.2871481509 -1.2950122935
H 5.2382485616 0.5352885384 1.2823774463
H 7.1661822015 1.0875591100 -1.0482037245
H 1.7264137700 1.3249461072 -1.7361766449
H -0.7919848756 1.9694561326 -2.0873495746
H -5.7757311148 4.1491274496 -0.8449185148
H -6.1689036307 0.4996200271 -0.5565256744
H -3.7323993340 -2.7133119523 2.0236179985
H -5.8660102907 -3.3962021698 1.2367806043
H -6.6597298061 -3.0178597098 -0.8109694927
H -4.4434090780 -1.0231155748 -1.3379858917
H -4.4791850698 -4.0749950327 -1.4409303706
H -2.0189916702 -3.8192717557 -1.9208042834
H -3.0421693234 -3.1900669923 -3.2233832735
H -2.2507038220 -2.0693932437 -2.0776094926
H -4.9274850219 -1.6273096444 -3.4079434454
H -7.4803893517 -0.9656575538 -1.4468377876
H -7.6255762990 -0.9487465356 0.1950753477
H -5.8854060536 -0.6271569150 1.8138107488
