23
CONF1
C 0.3059315133 -0.6078600581 -0.7658729688
C 0.0668538546 0.9113540759 -0.3853516339
C 1.4798460547 1.4976215414 -0.0640592011
C 2.4546369076 0.3350244661 -0.1041805276
C 1.7659307028 -0.8898934217 -0.4932815445
O 2.5780113359 -0.1702187810 -1.4496898823
Cl 1.7133457059 2.4517923333 1.4712291387
C -1.1285621707 0.7857656002 0.6346410935
C -2.2982567697 0.3346904270 -0.2490441796
C -2.0963884192 -0.9447484878 -0.5784894519
C -0.7782599762 -1.3663892040 0.0574412090
C -0.8715734759 -0.5605946554 1.3833346338
Cl 0.6067544468 -0.6217507899 2.3699047127
Cl -2.2405136127 -1.0630804084 2.4320790654
Cl -0.5227644588 -3.1111241781 0.2272809229
Cl -2.9855854312 -1.9125082293 -1.6620595884
Cl -3.5121229766 1.3849131091 -0.8228517402
Cl -1.5246712517 2.1777024336 1.6547541754
H 0.1055213477 -0.7947603320 -1.8244061966
H -0.3293387183 1.4725638570 -1.2326010330
H 1.7329693696 2.2105597025 -0.8507606369
H 3.3684382922 0.3674166085 0.4830756311
H 2.1097980298 -1.8864756088 -0.2310918976
