47
CONF154
C -7.9446678834 0.9353551902 1.7902311255
O -6.7864166402 0.7907962181 0.9181948767
P -5.9228988001 -0.5529404242 0.9478622296
S -5.4122889670 -1.2536198753 2.6877746736
O -6.7821922315 -1.5046323238 -0.0055953622
C -6.3970642926 -2.8981005669 -0.1822565730
O -4.7017889247 -0.1509862093 -0.0403063493
C -3.5182375971 0.4151120641 0.4462653258
C -3.5086552400 1.7150787633 0.9333255960
C -2.3039475860 2.2686294723 1.3536868607
C -1.1268682080 1.5169956335 1.2955149692
C -1.1573750103 0.2084298825 0.8069559882
C -2.3575508185 -0.3425230007 0.3740980639
S 0.3654073836 2.2687792261 1.9354907631
C 1.6487978122 1.4764186560 0.9735962124
C 1.6659181359 1.5831406899 -0.4203633000
C 2.6971418401 1.0052322775 -1.1475929194
C 3.7136928084 0.3393963900 -0.4714551483
C 3.7171448793 0.2299948054 0.9126655500
C 2.6723814393 0.7988566939 1.6362257888
O 4.7043698386 -0.2609922084 -1.2444797521
P 6.2915846722 0.0827838480 -1.0711889258
S 6.7022655262 1.9387192590 -0.6926059309
O 6.8499701076 -0.5710210745 -2.4162956267
C 6.5494291896 0.0428465492 -3.7026841413
O 6.8541677443 -0.9072432842 0.0427602195
C 6.5986443946 -2.3454127681 -0.0430027276
H -7.6393128396 0.8366489817 2.8347724099
H -8.6997102821 0.1861391567 1.5384355607
H -8.3287381613 1.9368462552 1.5998240035
H -5.3964952158 -2.9582329172 -0.6190676221
H -6.4270291463 -3.4175699553 0.7786189487
H -7.1328027936 -3.3199361286 -0.8659970804
H -4.4253621268 2.2938292643 0.9678201703
H -2.2828381121 3.2903347292 1.7194516459
H -0.2508078815 -0.3855997818 0.7658892693
H -2.3989013650 -1.3577879808 -0.0059359174
H 0.8749651819 2.1173575445 -0.9365524814
H 2.7291729531 1.0784580530 -2.2293795029
H 4.5119346409 -0.3047355532 1.4219440731
H 2.6536562604 0.7055436944 2.7167740026
H 7.0440452516 -0.5799821865 -4.4469973129
H 5.4694313460 0.0493892208 -3.8707512087
H 6.9495259310 1.0595611029 -3.7312241789
H 7.1293582456 -2.7651403599 -0.8996865173
H 6.9841987102 -2.7626311505 0.8863518333
H 5.5247447248 -2.5315856609 -0.1240655695
