65
CONF192
C -1.8774058227 4.8918221054 -0.1066000158
C -1.8249245902 4.1424024079 -1.4358830197
C -2.0168356968 2.6282693770 -1.2794601090
C -1.9960926896 1.9127691299 -2.6377056699
C -0.9134927725 2.0536335734 -0.4164147350
O 0.2740747498 2.2162616817 -0.6281275603
O -1.4011443271 1.3113750898 0.5969573726
C -0.4282865768 0.6736057034 1.4861460046
C -0.0525852394 1.6356589380 2.6005930439
C 1.0235767908 1.0092884613 3.4998079241
C 0.6976161754 -0.4231483811 3.8004135037
C -0.2342341614 -1.1532738739 3.1578233357
C -1.0860560711 -0.5815778567 2.0370125404
C -1.3605526086 -1.6635095946 0.9685540805
C -2.1207642739 -2.8228109463 1.6443879343
C -1.3560389526 -3.3161683330 2.8420964255
C -0.4841651007 -2.5423482547 3.5099052891
C -2.4830278061 -3.9590871413 0.6844493292
C -0.0567217935 -2.0927350084 0.2579088756
C 0.0285770954 -1.5341532411 -1.1642262735
C 1.4004361313 -1.6450729523 -1.8007409071
C 1.4191804675 -1.1915837543 -3.2469235344
C 2.8514196723 -1.1203898058 -3.7463102403
C 3.5955367029 -0.0850277985 -2.9242906901
C 3.3669336062 -0.1666767502 -1.4343860349
O 4.0920664408 0.3975821290 -0.6383654387
O 2.3003215342 -0.8333258577 -0.9589341410
O 2.9403382683 -0.6994165787 -5.1121481556
C 2.4324919217 1.1304384228 2.8909444483
H -1.7672641059 5.9694793831 -0.2593567416
H -2.8306813288 4.7180121383 0.4043431710
H -1.0726922231 4.5683633495 0.5636326072
H -2.6116866160 4.5105123114 -2.1049171982
H -0.8667805922 4.3251565214 -1.9368022005
H -2.9739115702 2.4347773297 -0.7830033751
H -2.1573041458 0.8359880105 -2.5248153322
H -2.7882108215 2.3139129313 -3.2767772881
H -1.0343651565 2.0693738437 -3.1364098358
H 0.4545955341 0.4218072276 0.8912948538
H 0.3117393828 2.5763362528 2.1746787227
H -0.9529024732 1.8544244000 3.1877862629
H 1.0344290053 1.5606631282 4.4507390419
H 1.2783735798 -0.9004544663 4.5899278770
H -2.0570718901 -0.2884906162 2.4667973474
H -2.0363717033 -1.2297693946 0.2200273017
H -3.0730718779 -2.3993431709 2.0043938713
H -1.5244788178 -4.3424662615 3.1640881632
H 0.0674324823 -2.9444023199 4.3577382644
H -3.1375151941 -4.6813333033 1.1830224292
H -3.0101051284 -3.5688211024 -0.1925607374
H -1.5969447395 -4.5004784506 0.3391502638
H 0.8079094854 -1.7516958972 0.8381334464
H 0.0256087078 -3.1833334526 0.2150913780
H -0.6859669248 -2.0606335057 -1.8098968900
H -0.2582314046 -0.4761228056 -1.1802533873
H 1.7802523866 -2.6727971635 -1.7222374472
H 0.9456497357 -0.2049498427 -3.3412310795
H 0.8376843020 -1.9101184342 -3.8352688970
H 3.3293871032 -2.1054724345 -3.6262194586
H 3.2457227839 0.9128253513 -3.2249291001
H 4.6740469532 -0.1130542306 -3.0990497577
H 2.5492800664 -1.3915099284 -5.6604683144
H 2.7032784142 2.1831335340 2.7586030085
H 2.4821710177 0.6350378066 1.9160794193
H 3.1777538050 0.6626413704 3.5421858224
