111
CONF42
C 2.9220727053 -1.1182867215 1.4310598545
N 2.0242618022 -2.0276852886 2.1611310717
C 2.5003351019 -3.3102539547 2.6431358541
C 0.7566991468 -1.8986319577 1.6126930969
C -0.3242666796 -2.7718107127 1.7044564111
C -1.5134583322 -2.4062441851 1.0583356610
O -2.6235529449 -3.2041897475 1.0596715158
C -2.5427105141 -4.4860830389 1.6902809192
C -1.6353491734 -1.2052410934 0.3333011778
C -0.5217020014 -0.3561705919 0.2830605698
C 0.6569388274 -0.6967591658 0.9063780898
C 1.9603592594 0.0497802651 1.0591324791
C 1.8800691739 1.0672635007 2.2586092321
C 2.2269301132 2.4200966603 1.6381662282
N 3.0996601570 2.0546768013 0.5226895421
C 3.3471329698 3.1515416178 -0.4008167053
C 3.9776389171 2.6465455765 -1.6601720475
C 3.9403220571 1.3650251216 -2.0198183169
C 3.1742773471 0.2969841322 -1.2701025109
C 2.1414198891 -0.3119084699 -2.2692635251
C 2.7013527200 -1.1367504570 -3.4251771517
C 4.1878901979 -0.7498242997 -0.7603658340
O 5.2330318579 -0.0346043298 -0.0560903560
C 6.5186158313 -0.3695243534 -0.3048751514
C 7.4462683276 0.4938932442 0.4927509363
O 6.8545424373 -1.2458930681 -1.0760377950
C 3.5865791379 -1.8113014623 0.2082906249
O 2.6304287018 -2.5822031832 -0.4917807452
C 4.7273432437 -2.7695046495 0.6044298100
O 4.8885402826 -3.8310532837 0.0319324145
O 5.5091164425 -2.3131243100 1.5802374846
C 6.6415821627 -3.1595615899 1.9248594168
C 2.3823498025 0.9476496398 -0.1222088622
C -2.9573125362 -0.8579189626 -0.3556280456
C -4.0764462979 -0.5537490512 0.6677071683
C -3.7695182528 0.4718447554 1.7885273509
C -3.0155349577 1.7529196303 1.4038612710
N -3.8285953333 2.7383326551 0.6865135852
C -4.9169924864 3.1849399467 1.5658010817
C -5.6154873689 2.0773169482 2.3303792469
C -6.9266388148 2.4342777128 2.9760900466
C -6.8042492749 3.5498968037 4.0243181674
C -5.0741688161 0.8572157229 2.4349082857
C -4.3750250839 2.2143759337 -0.5902725442
C -3.3457276581 1.5428739901 -1.4456372207
C -2.7849735141 0.2762777019 -1.3526041702
N -1.8827858821 0.1121640510 -2.3903989872
C -1.8053142552 1.2570355378 -3.1369884930
C -1.0201161735 1.5586323719 -4.2494342092
C -1.1560463758 2.8272757696 -4.7977015100
C -2.0543110559 3.7649095662 -4.2529368091
C -2.8356563361 3.4562609803 -3.1481916630
C -2.7178863827 2.1840222362 -2.5688188158
C -3.4544869823 -2.0490407294 -1.2152184434
O -4.6163326564 -2.3613780536 -1.3574162561
O -2.4402424136 -2.6545469464 -1.8584287804
C -2.8200461901 -3.7382146099 -2.7422348278
H 3.7254563793 -0.7624367793 2.0797878381
H 3.4687605306 -3.1784274360 3.1333105217
H 2.5991424752 -4.0580418540 1.8399228373
H 1.8025877567 -3.7019954430 3.3900253180
H -0.2393163598 -3.7135866385 2.2300755955
H -2.3427671499 -4.3855694335 2.7634603648
H -3.5194270749 -4.9482482439 1.5424196932
H -1.7664607884 -5.1051182869 1.2252142417
H -0.5815840654 0.5700891235 -0.2779963257
H 2.6064189690 0.7983604081 3.0304486533
H 0.8860309401 1.0659700682 2.7113800177
H 2.7336716615 3.1003815631 2.3312743551
H 1.3091463355 2.9229071838 1.2714158790
H 4.0051185930 3.8883986287 0.0789988872
H 2.4067815337 3.6907819526 -0.6514568172
H 4.4808332215 3.3764563905 -2.2897003057
H 4.4393406701 1.0452164985 -2.9319489357
H 1.5868696588 0.5447852523 -2.6735480478
H 1.4224078688 -0.9149243461 -1.7106616398
H 1.8878874181 -1.4043258007 -4.1072774729
H 3.4481354913 -0.5893253879 -4.0086485711
H 3.1558002092 -2.0687782067 -3.0781508009
H 4.6331568413 -1.2781683152 -1.6083405578
H 7.3490624777 1.5317609305 0.1581399251
H 7.1664707130 0.4624888779 1.5493250509
H 8.4735608140 0.1569222393 0.3605059555
H 3.1073976575 -3.3511622748 -0.8471735252
H 7.1607027825 -2.6293443366 2.7215138603
H 7.2855358435 -3.2822349394 1.0513836338
H 6.2842824300 -4.1318460203 2.2706591420
H 1.4489727895 1.3477864754 -0.5741723845
H -4.9692779623 -0.2639357671 0.1130325663
H -4.3275285172 -1.4976487816 1.1578325026
H -3.1460089080 -0.0497330061 2.5299660667
H -2.1228035957 1.5297504024 0.8204691080
H -2.6766252385 2.2331314537 2.3315630579
H -4.5080503509 3.9133131750 2.2835272795
H -5.6558545649 3.7347029736 0.9654124259
H -7.6324686836 2.7586548426 2.1977998633
H -7.3522590408 1.5383051681 3.4424423474
H -6.0904156704 3.2681004678 4.8055574042
H -6.4629677283 4.4878207227 3.5759231740
H -7.7723706568 3.7399497158 4.4977055052
H -5.6156066360 0.0777163614 2.9727469368
H -4.7646043558 3.0752254266 -1.1472444465
H -5.2371567927 1.5525982180 -0.4186396661
H -1.3179041254 -0.7125856393 -2.5228923781
H -0.3291504489 0.8317191443 -4.6653916408
H -0.5587759859 3.1011173017 -5.6617790538
H -2.1332527223 4.7477166053 -4.7073146457
H -3.5215265524 4.1919617225 -2.7385221103
H -3.3138652484 -4.5281791896 -2.1712014410
H -3.4895775557 -3.3709533258 -3.5237258840
H -1.8867511140 -4.1000911249 -3.1718233869
