43
CONF32
C -2.7619944112 -2.6936869054 0.2790343040
C -2.7244462357 -2.2185601761 -1.1752376601
C -1.4904951991 -1.3123814120 -1.2151415064
N -1.3845326967 -0.8004248939 0.1754810387
C -2.4042581443 -1.4204654818 1.0358139182
C -0.8640101473 0.4241640762 0.4877824145
C 0.2191762406 0.9889093254 -0.2341239951
C 0.6908278818 2.2635376249 0.0718518518
C 0.1742844538 3.0107831126 1.1183905478
C -0.8298576020 2.4300794256 1.8947541057
C -1.3359845759 1.1684940756 1.5894757756
C -1.3546594730 3.2181852488 3.0380691238
O -0.9921457810 4.3451147191 3.3158506426
O -2.2876795520 2.5536867687 3.7524157961
S 2.0713135840 2.9448221142 -0.8719083694
O 2.2248455723 4.3450453678 -0.4536422924
O 3.2075789732 2.0179473460 -0.7704044036
N 1.6307953745 2.9816953115 -2.4916962548
O 0.8105934375 0.3130194171 -1.2799589945
C 1.6425879458 -0.7615496358 -0.9845625771
C 2.1423448476 -1.4478145141 -2.0874750684
C 2.9884549742 -2.5314580069 -1.8822825050
C 3.3284389721 -2.9279160358 -0.5891010213
C 2.8188783374 -2.2260225296 0.4995158085
C 1.9728342339 -1.1338813297 0.3129436689
H -3.7342728016 -3.0903528076 0.5797284418
H -2.0005689975 -3.4624842818 0.4519213710
H -2.6512608944 -3.0347894928 -1.8976879909
H -3.6265809570 -1.6383149121 -1.3979555845
H -0.5965755876 -1.8864474097 -1.4858586659
H -1.5983735118 -0.4863165146 -1.9246965277
H -3.2925445427 -0.7745949908 1.1319198414
H -2.0014227004 -1.6049341736 2.0380325900
H 0.5521887158 3.9992648176 1.3434288513
H -2.1269377385 0.7611348405 2.2029938736
H -2.5801236524 3.1375081435 4.4720401205
H 0.8208470932 3.5831901875 -2.6325308133
H 1.4395747295 2.0407062884 -2.8326496990
H 1.8644606184 -1.1267395901 -3.0860999653
H 3.3825129153 -3.0681298783 -2.7395182914
H 3.9874513530 -3.7753063846 -0.4327066386
H 3.0809827866 -2.5224413996 1.5103341057
H 1.5877513625 -0.5822764442 1.1634604269
