37
CONF350
C -0.6334005501 -3.7233984305 1.4259811414
C 0.5160352246 -3.3679507691 0.5108604973
O 0.0652634408 -2.9414472238 -0.8168280516
P -0.7271968495 -1.6064441719 -1.1137319996
O -0.5052930008 -1.0506354391 -2.4645976802
O -2.2328671402 -1.9566917188 -0.7305453052
C -3.3261590481 -1.1569595845 -1.2929559934
C -3.3916557604 0.2260986148 -0.6831739185
O -0.3146498045 -0.5874955665 0.0997653416
P 0.9518911277 0.4310456175 0.0594406486
O 2.2514557923 -0.2165574603 -0.2285754807
O 0.5240862428 1.6103348382 -0.9219260667
C 1.1539219650 1.7460787010 -2.2431298659
C 2.3151935831 2.7081053790 -2.1599444394
O 0.7279922685 1.0544460986 1.5075400445
C 1.7061648385 2.0388011688 1.9752967181
C 1.3233464483 2.4190942203 3.3844464089
H -1.2798908629 -4.4751313386 0.9651857094
H -1.2346901394 -2.8456367221 1.6765021487
H -0.2264370186 -4.1355829077 2.3550777910
H 1.1471179801 -2.5771178243 0.9272026759
H 1.1405728289 -4.2377055032 0.2975395668
H -4.2195807339 -1.7404024530 -1.0606639292
H -3.1962960014 -1.1156106926 -2.3787410491
H -3.4555564031 0.1691528957 0.4070451161
H -2.5178035165 0.8252205916 -0.9554898440
H -4.2842267054 0.7369210749 -1.0585242326
H 0.3549606477 2.1186372902 -2.8880428876
H 1.4590271818 0.7597924291 -2.5991248683
H 3.0976219711 2.3115854918 -1.5064171567
H 2.7406038882 2.8499239708 -3.1587756648
H 1.9900644666 3.6815708468 -1.7812801121
H 2.7028758847 1.5861584703 1.9340965800
H 1.6754154576 2.9033351505 1.3017722653
H 0.3202744842 2.8529316089 3.4099300675
H 1.3486973979 1.5453674828 4.0409046613
H 2.0331212135 3.1601655575 3.7638815601
