45
CONF97
C -5.5884018942 -1.6190786170 2.2792085169
O -5.1524158600 -0.4152792015 1.6150689988
N -3.9298853225 -0.6379013741 1.0199124513
C -3.4750845833 0.4026593145 0.3923293845
C -4.1042457326 1.6892272310 0.2602909509
C -5.1996486080 2.3016708138 0.8264708789
C -5.3131654806 3.5797270594 0.2192782969
C -4.2963805266 3.6705768519 -0.6839390562
O -3.5499154429 2.5379129800 -0.6761614303
C -2.0985244547 0.1944654962 -0.1894267728
O -1.2102888192 1.0362768659 -0.0743640456
N -1.9141553313 -0.9895564756 -0.8221305267
C -0.6378845726 -1.3664672907 -1.3417802219
C 0.5820437570 -1.5341104894 -0.3833099014
N 1.2922971306 -0.5458094766 -1.1922030596
C 0.2325967514 -0.3000479831 -2.0566654303
O 0.1134989211 0.4097690338 -3.0251439669
C 2.6702093938 -0.3707036644 -1.2774710573
C 3.5176235308 -1.2327673873 -0.6737658528
C 3.0446983760 -2.4260858309 0.1160446326
S 1.4430651193 -3.1460071986 -0.4380724389
C 5.0066520858 -1.0435493939 -0.6420948081
O 5.4698844989 -0.9856489109 0.7363631388
C 5.2942411258 0.2233282852 1.3483138727
O 4.8679552782 1.2179264039 0.7787888492
N 5.6309288182 0.1483376259 2.6541586290
C 3.0634348616 0.9065099648 -1.9497606489
O 2.5138402758 1.9618429344 -1.7185801940
O 4.0623275459 0.7513253257 -2.8318169247
H -6.5537043997 -1.3665571789 2.7202448900
H -5.7029176470 -2.4323523650 1.5563449711
H -4.8765018130 -1.9000155434 3.0609242339
H -5.8370043725 1.8865198533 1.5886156596
H -6.0566769937 4.3351622268 0.4252900363
H -3.9821610061 4.4360501636 -1.3771146434
H -2.6803770833 -1.6450207158 -0.8746946420
H -0.7592363414 -2.2374211739 -1.9929877348
H 0.4202410414 -1.2064216999 0.6477368124
H 3.7805865208 -3.2321044327 0.0310464204
H 2.9673695434 -2.1720146823 1.1802825713
H 5.5038820133 -1.9279002543 -1.0502821447
H 5.3399659345 -0.1571755882 -1.1757288097
H 5.7050333433 1.0089110764 3.1710244722
H 6.1040871611 -0.6669458370 3.0094769606
H 4.2921125589 1.6277116463 -3.1897215238
