35
CONF6
C 1.0777121769 -2.2747472841 -0.6919607846
C -0.0769539341 -1.3740109121 -0.3728107112
C -1.3962881667 -1.6615844335 -0.7658282388
N -2.4271595007 -0.8610012198 -0.4778412751
C -2.1636962732 0.2584303884 0.2309749342
N -0.9281682080 0.6542720025 0.6142792336
C 0.0548324976 -0.1667141192 0.3031177889
O 1.3032060724 0.2319467864 0.7711901216
C 2.2026254973 0.6664963301 -0.1909388248
O 1.8590517008 0.9004527289 -1.3409979730
N 3.4418834479 0.7862183127 0.3223997757
C 4.4779801200 1.4477658162 -0.4655137593
C 3.7458414896 0.5554506438 1.7348088363
N -3.2167114847 1.0458457656 0.5927146682
C -2.9654518276 2.3764486834 1.1393878924
C -4.5283876139 0.8094389188 -0.0041723143
C -1.6993371681 -2.9057601042 -1.5436110090
H 1.9545590870 -2.0235923807 -0.0912930567
H 0.8240864471 -3.3204992412 -0.4950582694
H 1.3612406699 -2.2002572067 -1.7488726221
H 5.3973498041 0.8550181620 -0.4298854224
H 4.6871139266 2.4462970244 -0.0610191277
H 4.1482872483 1.5405467376 -1.4994855361
H 3.1702627416 -0.2857067930 2.1204581935
H 4.8098028391 0.3205701777 1.8183996539
H 3.5340418574 1.4461934040 2.3400180994
H -3.8971329471 2.7579354427 1.5616424891
H -2.6140824341 3.0774352369 0.3680670812
H -2.2137843476 2.3296060050 1.9285240838
H -5.2684748435 1.3913054589 0.5484552696
H -4.5585742878 1.1127638007 -1.0608776409
H -4.7919474867 -0.2472291417 0.0568693193
H -2.7426930071 -2.9102252599 -1.8605033851
H -1.0494312596 -2.9847388081 -2.4212577011
H -1.5116037433 -3.7943707373 -0.9293800008
