46
CONF113
C 4.5471947178 3.6925708738 3.9142655677
C 3.5729393797 3.2466107697 2.8508728111
O 3.8637677096 1.8417686357 2.5809488301
C 3.1291801311 1.2083770455 1.6662493437
N 3.4699893674 -0.0643099492 1.4873406331
C 2.7318487248 -0.7141584400 0.5630205889
N 1.7070946345 -0.1554463557 -0.1282863617
C 1.4858888671 1.1253320194 0.1529685214
N 2.1589175081 1.8799875380 1.0333078251
N 0.4712309147 1.7979568995 -0.5068895697
C -0.4843198940 1.3567034723 -1.4206552259
O -1.3201424146 2.1279307009 -1.8670819488
N -0.4034924311 0.0243932307 -1.7565512819
S -1.6249240867 -0.7681513861 -2.6306130191
O -1.6975316956 -0.1791944700 -3.9691065143
O -1.2973006481 -2.1915301943 -2.4678655651
C -3.1789816470 -0.4260606146 -1.7910768557
C -4.0230051140 0.5112086173 -2.3782471978
C -5.2863590921 0.7246610465 -1.8384041649
C -5.7070156757 -0.0160575870 -0.7385683321
C -4.8649600866 -0.9652158469 -0.1700655597
C -3.5812470641 -1.1722319853 -0.6766495227
C -2.7453271740 -2.1992163778 0.0200341459
O -3.1177086602 -3.3354281161 0.2188538750
O -1.5917598464 -1.6842929926 0.4628664580
C -0.7266492415 -2.6175590027 1.1632163003
N 3.0487848627 -1.9962856534 0.3335046384
C 2.4783493796 -2.8655966941 -0.6834538877
H 5.5791387332 3.5903147062 3.5673438004
H 4.3635030272 4.7453896388 4.1468193692
H 4.4208463628 3.1091301160 4.8304133933
H 2.5346250891 3.3311237388 3.1849728283
H 3.6919595131 3.8133419216 1.9226966584
H 0.3750079571 2.7751353287 -0.2619418256
H 0.2618751224 -0.5555566990 -1.2231173491
H -3.6938589405 1.0583563049 -3.2526751462
H -5.9430475129 1.4607341184 -2.2891709940
H -6.6969305097 0.1391802687 -0.3229266583
H -5.1915317932 -1.5506978527 0.6828838494
H -1.2397259699 -3.0116245350 2.0430449987
H 0.1473153923 -2.0358974427 1.4521612491
H -0.4480765798 -3.4347286571 0.4940345979
H 3.8317914944 -2.3452979312 0.8663251602
H 3.2337248721 -3.1190773449 -1.4353449208
H 2.1113957384 -3.7899583402 -0.2268508985
H 1.6475262821 -2.3666329038 -1.1796599477
