46
CONF207
C -1.7145739693 4.9234396835 -2.6570667270
C -2.0014328659 4.4886934718 -1.2220682005
C -0.7202555793 4.2334258430 -0.4285597291
C -0.9665920503 3.8227593014 1.0060624195
O -1.6678882504 2.5449477224 0.9763342313
C -1.8972505411 1.9810603815 2.1671271121
O -1.6141388568 2.4655273037 3.2389834484
C -2.6276749233 0.6433923091 2.0356056822
C -4.1291440393 0.8784771477 2.1044820213
O -2.3711335179 -0.0218034535 0.8002559829
C -1.0936679146 -0.4281942897 0.5416961235
C -0.8943709510 -1.0028420946 -0.7179914597
C 0.3612456772 -1.4559233174 -1.0866794686
C 1.4185766257 -1.3336500120 -0.1915826219
C 1.2374841805 -0.7660444597 1.0564156905
C -0.0242484019 -0.3061121624 1.4315971471
O 2.7028875839 -1.7278191284 -0.5769732124
C 2.9949790075 -3.0547010072 -0.5391709689
C 4.2414777833 -3.4312476214 -1.0591364628
C 4.6612574549 -4.7410580645 -1.0680999819
C 3.8157667131 -5.7301251947 -0.5410946150
C 2.5697034028 -5.3714882760 -0.0159323644
C 2.1638899027 -4.0446478613 -0.0150134626
C 4.2296810826 -7.0901835511 -0.5422417703
N 4.5631758154 -8.1996753643 -0.5437935252
F 5.0413454761 -2.4752785949 -1.5592213976
H -2.6401086784 5.0986052384 -3.2130122845
H -1.1296686742 5.8493550602 -2.6804728111
H -1.1438337236 4.1563634284 -3.1912074915
H -2.5935632421 5.2593263153 -0.7107400986
H -2.6101084742 3.5775591702 -1.2251204259
H -0.1188407381 3.4601432153 -0.9233964870
H -0.1074568736 5.1444627806 -0.4087651173
H -0.0356445607 3.6894806333 1.5663443129
H -1.5911629797 4.5459243383 1.5429257287
H -2.3042207849 0.0216553345 2.8813018247
H -4.3809268609 1.3812099698 3.0411958514
H -4.4510376212 1.4984399629 1.2636557370
H -4.6530699087 -0.0791460118 2.0602011307
H -1.7373872308 -1.0770185173 -1.3957706467
H 0.5303276830 -1.8975311705 -2.0631444536
H 2.0813474240 -0.6770990412 1.7319524211
H -0.1463152096 0.1419275244 2.4105547317
H 5.6317420550 -4.9903940975 -1.4803817616
H 1.9214663012 -6.1371416672 0.3935844113
H 1.1993635652 -3.7670512725 0.3933842613
