35
CONF11
C -5.0413700850 -0.4326415764 -1.4359235301
C -4.3820961643 -1.5873308414 -0.7250628714
O -2.9428155483 -1.3184998967 -0.7413241747
C -2.1699592490 -2.2114503459 -0.1595501439
N -2.6099690006 -3.2998231922 0.4153070634
C -1.7138879164 -4.1251244196 0.9724583297
C -0.3564929957 -3.9556819886 1.0112676924
C 0.1119149559 -2.7858893219 0.3929618101
N 1.3239684770 -2.2625962999 0.2250245677
C 1.0496085287 -1.1227186533 -0.4443541364
N -0.2141719092 -0.8497143490 -0.7398359389
N -0.8308715623 -1.9312166395 -0.1904155125
S 2.3767674324 -0.0441630844 -1.0307299248
O 2.4362772918 -0.2223679849 -2.4819486316
O 3.5237921747 -0.2198459207 -0.1505413780
N 1.6995063619 1.5224213785 -0.7738058053
C 2.3284980672 2.3921061604 0.1354260969
C 3.0503349923 3.5164117572 -0.2989476445
C 3.6335415089 4.4094652087 0.5878539895
C 3.5300202963 4.1734489096 1.9525585513
C 2.8300391711 3.0707455095 2.4241434349
C 2.2262306898 2.2054264697 1.5224435440
Cl 1.3050142688 0.8620367128 2.1430580103
Cl 3.2143880463 3.8100482247 -2.0177395859
F -2.2502073240 -5.2123952074 1.5362643402
H -6.1233626899 -0.5913926202 -1.4480203096
H -4.6902698229 -0.3572226048 -2.4679061380
H -4.8346565075 0.5104835907 -0.9242964522
H -4.7002192803 -1.6773384195 0.3179117271
H -4.5557002450 -2.5447565242 -1.2253922124
H 0.3149410669 -4.6608062709 1.4794779396
H 1.5547306322 1.9360053188 -1.6911459100
H 4.1755191648 5.2661778850 0.2064289270
H 3.9955870719 4.8566082624 2.6540518363
H 2.7353701916 2.8815907733 3.4863969654
