55
CONF225
C 5.6657762387 -3.4207032452 -2.4454348483
O 4.5468823150 -2.5843936667 -2.7682076569
C 3.6096582035 -2.3861575332 -1.8006809755
C 3.6585548597 -2.9498587903 -0.5237138645
C 2.6354828248 -2.6742597657 0.3810327820
C 1.5657602832 -1.8444272616 0.0481211738
C 1.5288247321 -1.2964005023 -1.2409512688
C 2.5349319504 -1.5603310364 -2.1543030481
C 0.5176235235 -1.5563180338 1.0901578563
S -1.1639693329 -1.8473024175 0.3410816212
C -2.2389725402 -0.9140569950 1.4154574423
C -3.2134687657 -1.5910727656 2.1543207510
C -4.1333949956 -0.8891833716 2.9242775973
C -4.0652245313 0.5005715864 2.9871177361
C -3.0893005280 1.1841364560 2.2730209821
C -2.1791588489 0.4911660354 1.4711733177
N -1.2228898600 1.2289363258 0.7196073890
C -1.7182786803 2.2394775046 -0.2299946330
C -2.0338747982 1.5815123781 -1.5748559534
N -2.5417478528 2.5453811067 -2.5517747156
C -3.9248683412 2.9294290097 -2.2544808123
C -2.4736539185 1.9723387905 -3.8990646269
C 0.1147198795 0.9534682940 0.7288286710
O 0.9246938737 1.5535853559 0.0288270822
C 0.5636276065 -0.1430014929 1.6996968440
O 1.9308107419 0.0756972002 2.0823655509
C 2.1540140671 1.1878774061 2.8294715335
C 3.6132061896 1.3687691165 3.1029119313
O 1.2633871412 1.9270736363 3.1914795004
H 6.2378356858 -3.0048188614 -1.6078179631
H 6.2877462004 -3.4399402517 -3.3406584673
H 5.3388345156 -4.4384170538 -2.2020924422
H 4.4714368943 -3.5989738501 -0.2231022505
H 2.6803733844 -3.1149629127 1.3731679604
H 0.7032142661 -0.6581040061 -1.5364723832
H 2.5050682186 -1.1355732364 -3.1525459484
H 0.6456196132 -2.2603122279 1.9182565976
H -3.2469185697 -2.6745812101 2.1114514540
H -4.8910211708 -1.4276690362 3.4839056040
H -4.7637605404 1.0557024882 3.6045115803
H -3.0212351267 2.2649205941 2.3417096285
H -0.9511159581 3.0063714309 -0.3548949404
H -2.6055412757 2.7011882056 0.2057192536
H -1.1046144959 1.1498885866 -1.9644250227
H -2.7424227717 0.7430240786 -1.4149135177
H -3.9951586796 3.4065491889 -1.2731642678
H -4.6112324692 2.0607124566 -2.2677378866
H -4.2704167604 3.6507213112 -3.0017028550
H -3.0890023577 1.0577662597 -4.0001746595
H -2.8322441803 2.7059923399 -4.6283500204
H -1.4371417908 1.7188596819 -4.1435107488
H -0.0594850975 -0.1213103496 2.5986447758
H 3.7473758260 2.0302194232 3.9583637066
H 4.1054156060 0.4088997277 3.2696995286
H 4.0692377771 1.8318952001 2.2206455023
