45
CONF75
C 4.3813680643 3.7059538850 0.1019717590
C 3.3457669012 3.0552803442 1.0198912572
C 2.8300780366 1.7024978398 0.5171643883
C 2.0455371268 1.7876414736 -0.7930092660
C 1.5211656408 0.4384324389 -1.2921162824
C 0.5010258286 -0.2509275148 -0.3653601529
C 0.0391093143 -1.5841998253 -0.9800519592
C -0.9071662297 -2.3820444033 -0.0856790298
C -1.3260941253 -3.7121812854 -0.7127357654
C -2.2099775333 -4.5783986048 0.1902690416
C -3.5562977009 -3.9379333088 0.5308040930
C -0.6691498521 0.6568416942 -0.0521749880
C -1.5099370475 1.1235732865 -1.0698339487
C -2.5861371785 1.9579563281 -0.7824046568
C -2.8435048829 2.3457340990 0.5325049473
C -2.0148290406 1.8894760552 1.5541125630
C -0.9387691711 1.0526685591 1.2602059614
H 4.7798434780 4.6232963914 0.5471652765
H 3.9542147842 3.9701329489 -0.8703067486
H 5.2225156032 3.0258114391 -0.0761642480
H 3.7881327641 2.9153974654 2.0141342396
H 2.4928818434 3.7347284529 1.1537736325
H 3.6781461928 1.0145082690 0.3862857488
H 2.1918556044 1.2642431888 1.2943864678
H 1.2039283396 2.4824495988 -0.6629850038
H 2.6832298922 2.2164841428 -1.5752346537
H 2.3665950152 -0.2475771879 -1.4387598568
H 1.0572183914 0.5753581315 -2.2779362597
H 0.9963627126 -0.4841405003 0.5860855352
H -0.4484273312 -1.3861368114 -1.9449223456
H 0.9302236348 -2.1878183417 -1.1998364669
H -0.4210276472 -2.5724118227 0.8825581624
H -1.7950523484 -1.7745386060 0.1272757903
H -0.4233791810 -4.2784747987 -0.9791377612
H -1.8577918404 -3.5142607844 -1.6546411492
H -1.6656180135 -4.8048363573 1.1170190534
H -2.3860459220 -5.5403641056 -0.3072363228
H -4.0949577095 -3.6586896555 -0.3823006960
H -3.4325398145 -3.0332560607 1.1341476932
H -4.1892360311 -4.6287355697 1.0970159119
H -1.3218020329 0.8318124022 -2.0996145196
H -3.2268246402 2.3084454158 -1.5864980437
H -3.6826590480 2.9970488485 0.7569181467
H -2.2050540240 2.1834496611 2.5822938248
H -0.2969198224 0.6977043116 2.0628314346
